2-nitrophenanthrene
     RDKit          2D

 17 19  0  0  0  0  0  0  0  0999 V2000
    0.6533    2.4267    0.0000 C   0  0  0  0  0  0  0  0  0  0  0  0
    0.0000    1.2133    0.0000 C   0  0  0  0  0  0  0  0  0  0  0  0
    0.6533   -0.0000    0.0000 C   0  0  0  0  0  0  0  0  0  0  0  0
    2.0533   -0.0000    0.0000 C   0  0  0  0  0  0  0  0  0  0  0  0
    2.7533    1.2133    0.0000 C   0  0  0  0  0  0  0  0  0  0  0  0
    2.0533    2.4267    0.0000 C   0  0  0  0  0  0  0  0  0  0  0  0
    4.1533    1.2133    0.0000 C   0  0  0  0  0  0  0  0  0  0  0  0
    4.8533    2.4267    0.0000 C   0  0  0  0  0  0  0  0  0  0  0  0
    4.1533    3.5933    0.0000 C   0  0  0  0  0  0  0  0  0  0  0  0
    2.7533    3.5933    0.0000 C   0  0  0  0  0  0  0  0  0  0  0  0
    4.8533   -0.0000    0.0000 C   0  0  0  0  0  0  0  0  0  0  0  0
    6.2533   -0.0000    0.0000 C   0  0  0  0  0  0  0  0  0  0  0  0
    7.0000    1.2133    0.0000 C   0  0  0  0  0  0  0  0  0  0  0  0
    6.2533    2.4267    0.0000 C   0  0  0  0  0  0  0  0  0  0  0  0
    8.4000    1.2133    0.0000 N   0  0  0  0  0  0  0  0  0  0  0  0
    9.1000   -0.0000    0.0000 O   0  0  0  0  0  0  0  0  0  0  0  0
    9.1000    2.4267    0.0000 O   0  0  0  0  0  0  0  0  0  0  0  0
  1  2  2  0
  2  3  1  0
  3  4  2  0
  4  5  1  0
  5  6  2  0
  1  6  1  0
  5  7  1  0
  7  8  2  0
  8  9  1  0
  9 10  2  0
  6 10  1  0
  7 11  1  0
 11 12  2  0
 12 13  1  0
 13 14  2  0
  8 14  1  0
 13 15  1  0
 15 16  1  0
 15 17  2  0
M  CHG  2  15   1  16  -1
M  END
>  <Compound Name>  (1) 
2-nitrophenanthrene

>  <Formula>  (1) 
C14H9NO2

>  <LogP>  (1) 
4.23

>  <LUMO>  (1) 
-1.246

>  <MOL_ID>  (1) 
1

>  <Activity>  (1) 
2.11

$$$$
8-nitroquinoline
     RDKit          2D

 13 14  0  0  0  0  0  0  0  0999 V2000
   -0.0000    2.7985    0.0000 C   0  0  0  0  0  0  0  0  0  0  0  0
    1.1660    2.0988    0.0000 C   0  0  0  0  0  0  0  0  0  0  0  0
    2.3787    2.7985    0.0000 C   0  0  0  0  0  0  0  0  0  0  0  0
    2.3787    4.1977    0.0000 C   0  0  0  0  0  0  0  0  0  0  0  0
    1.1660    4.8973    0.0000 C   0  0  0  0  0  0  0  0  0  0  0  0
   -0.0000    4.1977    0.0000 C   0  0  0  0  0  0  0  0  0  0  0  0
    3.5913    2.0988    0.0000 N   0  0  0  0  0  0  0  0  0  0  0  0
    4.8040    2.7985    0.0000 C   0  0  0  0  0  0  0  0  0  0  0  0
    4.8040    4.1977    0.0000 C   0  0  0  0  0  0  0  0  0  0  0  0
    3.5913    4.8973    0.0000 C   0  0  0  0  0  0  0  0  0  0  0  0
    1.1660    0.6996    0.0000 N   0  0  0  0  0  0  0  0  0  0  0  0
   -0.0000    0.0000    0.0000 O   0  0  0  0  0  0  0  0  0  0  0  0
    2.3787    0.0000    0.0000 O   0  0  0  0  0  0  0  0  0  0  0  0
  1  2  2  0
  2  3  1  0
  3  4  2  0
  4  5  1  0
  5  6  2  0
  1  6  1  0
  3  7  1  0
  7  8  2  0
  8  9  1  0
  9 10  2  0
  4 10  1  0
  2 11  1  0
 11 12  1  0
 11 13  2  0
M  CHG  2  11   1  12  -1
M  END
>  <Compound Name>  (2) 
8-nitroquinoline

>  <Formula>  (2) 
C9H6N2O2

>  <LogP>  (2) 
1.44

>  <LUMO>  (2) 
-1.429

>  <MOL_ID>  (2) 
2

>  <Activity>  (2) 
-1.24

$$$$
5-nitroquinoline
     RDKit          2D

 13 14  0  0  0  0  0  0  0  0999 V2000
   -0.0000    0.6996    0.0000 C   0  0  0  0  0  0  0  0  0  0  0  0
    1.1660    0.0000    0.0000 C   0  0  0  0  0  0  0  0  0  0  0  0
    2.3787    0.6996    0.0000 C   0  0  0  0  0  0  0  0  0  0  0  0
    2.3787    2.0989    0.0000 C   0  0  0  0  0  0  0  0  0  0  0  0
    1.1660    2.7985    0.0000 C   0  0  0  0  0  0  0  0  0  0  0  0
   -0.0000    2.0989    0.0000 C   0  0  0  0  0  0  0  0  0  0  0  0
    3.5914    0.0000    0.0000 N   0  0  0  0  0  0  0  0  0  0  0  0
    4.8040    0.6996    0.0000 C   0  0  0  0  0  0  0  0  0  0  0  0
    4.8040    2.0989    0.0000 C   0  0  0  0  0  0  0  0  0  0  0  0
    3.5914    2.7985    0.0000 C   0  0  0  0  0  0  0  0  0  0  0  0
    1.1660    4.1977    0.0000 N   0  0  0  0  0  0  0  0  0  0  0  0
    2.3787    4.8973    0.0000 O   0  0  0  0  0  0  0  0  0  0  0  0
   -0.0000    4.8973    0.0000 O   0  0  0  0  0  0  0  0  0  0  0  0
  1  2  2  0
  2  3  1  0
  3  4  2  0
  4  5  1  0
  5  6  2  0
  1  6  1  0
  3  7  1  0
  7  8  2  0
  8  9  1  0
  9 10  2  0
  4 10  1  0
  5 11  1  0
 11 12  1  0
 11 13  2  0
M  CHG  2  11   1  12  -1
M  END
>  <Compound Name>  (3) 
5-nitroquinoline

>  <Formula>  (3) 
C9H6N2O2

>  <LogP>  (3) 
1.86

>  <LUMO>  (3) 
-1.456

>  <MOL_ID>  (3) 
3

>  <Activity>  (3) 
-0.96

$$$$
1-nitrofluoranthene
     RDKit          2D

 19 22  0  0  0  0  0  0  0  0999 V2000
    2.2867    2.0067    0.0000 C   0  0  0  0  0  0  0  0  0  0  0  0
    2.2867    0.7000    0.0000 C   0  0  0  0  0  0  0  0  0  0  0  0
    3.5467    0.0467    0.0000 C   0  0  0  0  0  0  0  0  0  0  0  0
    4.5733    0.7933    0.0000 C   0  0  0  0  0  0  0  0  0  0  0  0
    4.5733    2.1933    0.0000 C   0  0  0  0  0  0  0  0  0  0  0  0
    3.3133    2.8933    0.0000 C   0  0  0  0  0  0  0  0  0  0  0  0
    1.1667    2.8000    0.0000 C   0  0  0  0  0  0  0  0  0  0  0  0
    0.0000    2.1000    0.0000 C   0  0  0  0  0  0  0  0  0  0  0  0
    0.0000    0.7000    0.0000 C   0  0  0  0  0  0  0  0  0  0  0  0
    1.1667    0.0000    0.0000 C   0  0  0  0  0  0  0  0  0  0  0  0
    2.9867    4.1533    0.0000 C   0  0  0  0  0  0  0  0  0  0  0  0
    1.5867    4.1533    0.0000 C   0  0  0  0  0  0  0  0  0  0  0  0
    3.6867    5.3667    0.0000 C   0  0  0  0  0  0  0  0  0  0  0  0
    2.9867    6.5800    0.0000 C   0  0  0  0  0  0  0  0  0  0  0  0
    1.5867    6.5800    0.0000 C   0  0  0  0  0  0  0  0  0  0  0  0
    0.8867    5.3667    0.0000 C   0  0  0  0  0  0  0  0  0  0  0  0
    5.7867    2.8933    0.0000 N   0  0  0  0  0  0  0  0  0  0  0  0
    7.0000    2.1933    0.0000 O   0  0  0  0  0  0  0  0  0  0  0  0
    5.7867    4.2933    0.0000 O   0  0  0  0  0  0  0  0  0  0  0  0
  1  2  1  0
  2  3  2  0
  3  4  1  0
  4  5  2  0
  5  6  1  0
  1  6  2  0
  1  7  1  0
  7  8  2  0
  8  9  1  0
  9 10  2  0
  2 10  1  0
  6 11  1  0
 11 12  2  0
  7 12  1  0
 11 13  1  0
 13 14  2  0
 14 15  1  0
 15 16  2  0
 12 16  1  0
  5 17  1  0
 17 18  1  0
 17 19  2  0
M  CHG  2  17   1  18  -1
M  END
>  <Compound Name>  (4) 
1-nitrofluoranthene

>  <Formula>  (4) 
C16H9NO2

>  <LogP>  (4) 
4.69

>  <LUMO>  (4) 
-1.591

>  <MOL_ID>  (4) 
4

>  <Activity>  (4) 
2.74

$$$$
2,5-difluoronitrobenzene
     RDKit          2D

 11 11  0  0  0  0  0  0  0  0999 V2000
   -0.0000    2.4267    0.0000 C   0  0  0  0  0  0  0  0  0  0  0  0
    0.6533    1.2133    0.0000 C   0  0  0  0  0  0  0  0  0  0  0  0
    2.0533    1.2133    0.0000 C   0  0  0  0  0  0  0  0  0  0  0  0
    2.7533    2.4267    0.0000 C   0  0  0  0  0  0  0  0  0  0  0  0
    2.0533    3.6400    0.0000 C   0  0  0  0  0  0  0  0  0  0  0  0
    0.6533    3.6400    0.0000 C   0  0  0  0  0  0  0  0  0  0  0  0
    4.1533    2.4267    0.0000 N   0  0  0  0  0  0  0  0  0  0  0  0
    4.8533    1.2133    0.0000 O   0  0  0  0  0  0  0  0  0  0  0  0
    4.8533    3.6400    0.0000 O   0  0  0  0  0  0  0  0  0  0  0  0
    2.7533    4.8533    0.0000 F   0  0  0  0  0  0  0  0  0  0  0  0
   -0.0000   -0.0000    0.0000 F   0  0  0  0  0  0  0  0  0  0  0  0
  1  2  2  0
  2  3  1  0
  3  4  2  0
  4  5  1  0
  5  6  2  0
  1  6  1  0
  4  7  1  0
  7  8  1  0
  7  9  2  0
  5 10  1  0
  2 11  1  0
M  CHG  2   7   1   8  -1
M  END
>  <Compound Name>  (5) 
2,5-difluoronitrobenzene

>  <Formula>  (5) 
C6H3F2NO2

>  <LogP>  (5) 
1.89

>  <LUMO>  (5) 
-1.59

>  <MOL_ID>  (5) 
5

>  <Activity>  (5) 
-0.79

$$$$
1,3,6,8-tetranitropyrene
     RDKit          2D

 28 31  0  0  0  0  0  0  0  0999 V2000
    2.3787    4.1977    0.0000 C   0  0  0  0  0  0  0  0  0  0  0  0
    2.3787    2.7985    0.0000 C   0  0  0  0  0  0  0  0  0  0  0  0
    3.5914    2.0989    0.0000 C   0  0  0  0  0  0  0  0  0  0  0  0
    4.8040    2.7985    0.0000 C   0  0  0  0  0  0  0  0  0  0  0  0
    4.8040    4.1977    0.0000 C   0  0  0  0  0  0  0  0  0  0  0  0
    3.5914    4.8973    0.0000 C   0  0  0  0  0  0  0  0  0  0  0  0
    6.0167    2.0989    0.0000 C   0  0  0  0  0  0  0  0  0  0  0  0
    7.2294    2.7985    0.0000 C   0  0  0  0  0  0  0  0  0  0  0  0
    7.2294    4.1977    0.0000 C   0  0  0  0  0  0  0  0  0  0  0  0
    6.0167    4.8973    0.0000 C   0  0  0  0  0  0  0  0  0  0  0  0
    6.0167    6.2965    0.0000 C   0  0  0  0  0  0  0  0  0  0  0  0
    4.8040    6.9962    0.0000 C   0  0  0  0  0  0  0  0  0  0  0  0
    3.5914    6.2965    0.0000 C   0  0  0  0  0  0  0  0  0  0  0  0
    8.4420    4.8973    0.0000 C   0  0  0  0  0  0  0  0  0  0  0  0
    8.4420    6.2965    0.0000 C   0  0  0  0  0  0  0  0  0  0  0  0
    7.2294    6.9962    0.0000 C   0  0  0  0  0  0  0  0  0  0  0  0
    7.2294    8.3954    0.0000 N   0  0  0  0  0  0  0  0  0  0  0  0
    8.4420    9.0484    0.0000 O   0  0  0  0  0  0  0  0  0  0  0  0
    6.0167    9.0484    0.0000 O   0  0  0  0  0  0  0  0  0  0  0  0
    9.6547    4.1977    0.0000 N   0  0  0  0  0  0  0  0  0  0  0  0
    9.6547    2.7985    0.0000 O   0  0  0  0  0  0  0  0  0  0  0  0
   10.8674    4.8973    0.0000 O   0  0  0  0  0  0  0  0  0  0  0  0
    1.1660    4.8973    0.0000 N   0  0  0  0  0  0  0  0  0  0  0  0
    1.1660    6.2965    0.0000 O   0  0  0  0  0  0  0  0  0  0  0  0
    0.0000    4.1977    0.0000 O   0  0  0  0  0  0  0  0  0  0  0  0
    3.5914    0.6996    0.0000 N   0  0  0  0  0  0  0  0  0  0  0  0
    2.3787   -0.0000    0.0000 O   0  0  0  0  0  0  0  0  0  0  0  0
    4.8040   -0.0000    0.0000 O   0  0  0  0  0  0  0  0  0  0  0  0
  1  2  2  0
  2  3  1  0
  3  4  2  0
  4  5  1  0
  5  6  2  0
  1  6  1  0
  4  7  1  0
  7  8  2  0
  8  9  1  0
  9 10  2  0
  5 10  1  0
 10 11  1  0
 11 12  1  0
 12 13  2  0
  6 13  1  0
  9 14  1  0
 14 15  2  0
 15 16  1  0
 11 16  2  0
 16 17  1  0
 17 18  1  0
 17 19  2  0
 14 20  1  0
 20 21  1  0
 20 22  2  0
  1 23  1  0
 23 24  1  0
 23 25  2  0
  3 26  1  0
 26 27  1  0
 26 28  2  0
M  CHG  8  17   1  18  -1  20   1  21  -1  23   1  24  -1  26   1  27  -1
M  END
>  <Compound Name>  (6) 
1,3,6,8-tetranitropyrene

>  <Formula>  (6) 
C16H6N4O8

>  <LogP>  (6) 
3.92

>  <LUMO>  (6) 
-3.406

>  <MOL_ID>  (6) 
6

>  <Activity>  (6) 
4.99

$$$$
3-methyl-4-nitrobiphenyl
     RDKit          2D

 16 17  0  0  0  0  0  0  0  0999 V2000
   -0.0000    1.2133    0.0000 C   0  0  0  0  0  0  0  0  0  0  0  0
    0.6533   -0.0000    0.0000 C   0  0  0  0  0  0  0  0  0  0  0  0
    2.0533   -0.0000    0.0000 C   0  0  0  0  0  0  0  0  0  0  0  0
    2.7533    1.2133    0.0000 C   0  0  0  0  0  0  0  0  0  0  0  0
    2.0533    2.4267    0.0000 C   0  0  0  0  0  0  0  0  0  0  0  0
    0.6533    2.4267    0.0000 C   0  0  0  0  0  0  0  0  0  0  0  0
    4.1533    1.2133    0.0000 C   0  0  0  0  0  0  0  0  0  0  0  0
    4.8533   -0.0000    0.0000 C   0  0  0  0  0  0  0  0  0  0  0  0
    6.2533   -0.0000    0.0000 C   0  0  0  0  0  0  0  0  0  0  0  0
    6.9533    1.2133    0.0000 C   0  0  0  0  0  0  0  0  0  0  0  0
    6.2533    2.4267    0.0000 C   0  0  0  0  0  0  0  0  0  0  0  0
    4.8533    2.4267    0.0000 C   0  0  0  0  0  0  0  0  0  0  0  0
    6.9533    3.5933    0.0000 C   0  0  0  0  0  0  0  0  0  0  0  0
    8.3533    1.2133    0.0000 N   0  0  0  0  0  0  0  0  0  0  0  0
    9.0533   -0.0000    0.0000 O   0  0  0  0  0  0  0  0  0  0  0  0
    9.0533    2.4267    0.0000 O   0  0  0  0  0  0  0  0  0  0  0  0
  1  2  2  0
  2  3  1  0
  3  4  2  0
  4  5  1  0
  5  6  2  0
  1  6  1  0
  4  7  1  0
  7  8  2  0
  8  9  1  0
  9 10  2  0
 10 11  1  0
 11 12  2  0
  7 12  1  0
 11 13  1  0
 10 14  1  0
 14 15  1  0
 14 16  2  0
M  CHG  2  14   1  15  -1
M  END
>  <Compound Name>  (7) 
3-methyl-4-nitrobiphenyl

>  <Formula>  (7) 
C13H11NO2

>  <LogP>  (7) 
3.99

>  <LUMO>  (7) 
-1.144

>  <MOL_ID>  (7) 
7

>  <Activity>  (7) 
-0.1

$$$$
2-acetoxy-7-nitrofluorene
     RDKit          2D

 20 22  0  0  0  0  0  0  0  0999 V2000
    3.5913    3.4981    0.0000 C   0  0  0  0  0  0  0  0  0  0  0  0
    3.5913    2.0988    0.0000 C   0  0  0  0  0  0  0  0  0  0  0  0
    4.8040    1.3992    0.0000 C   0  0  0  0  0  0  0  0  0  0  0  0
    6.0167    2.0988    0.0000 C   0  0  0  0  0  0  0  0  0  0  0  0
    6.0167    3.4981    0.0000 C   0  0  0  0  0  0  0  0  0  0  0  0
    4.8040    4.1510    0.0000 C   0  0  0  0  0  0  0  0  0  0  0  0
    7.2293    1.3992    0.0000 C   0  0  0  0  0  0  0  0  0  0  0  0
    8.4420    2.0988    0.0000 C   0  0  0  0  0  0  0  0  0  0  0  0
    8.4420    3.4981    0.0000 C   0  0  0  0  0  0  0  0  0  0  0  0
    9.6546    1.3992    0.0000 C   0  0  0  0  0  0  0  0  0  0  0  0
   10.8673    2.0988    0.0000 C   0  0  0  0  0  0  0  0  0  0  0  0
   10.8673    3.4981    0.0000 C   0  0  0  0  0  0  0  0  0  0  0  0
    9.6546    4.1510    0.0000 C   0  0  0  0  0  0  0  0  0  0  0  0
   12.0800    1.3992    0.0000 N   0  0  0  0  0  0  0  0  0  0  0  0
   12.0800    0.0000    0.0000 O   0  0  0  0  0  0  0  0  0  0  0  0
   13.2926    2.0988    0.0000 O   0  0  0  0  0  0  0  0  0  0  0  0
    2.3787    1.3992    0.0000 O   0  0  0  0  0  0  0  0  0  0  0  0
    1.1660    2.0988    0.0000 C   0  0  0  0  0  0  0  0  0  0  0  0
    1.1660    3.4981    0.0000 O   0  0  0  0  0  0  0  0  0  0  0  0
    0.0000    1.3992    0.0000 C   0  0  0  0  0  0  0  0  0  0  0  0
  1  2  2  0
  2  3  1  0
  3  4  2  0
  4  5  1  0
  5  6  2  0
  1  6  1  0
  4  7  1  0
  7  8  1  0
  8  9  2  0
  5  9  1  0
  8 10  1  0
 10 11  2  0
 11 12  1  0
 12 13  2  0
  9 13  1  0
 11 14  1  0
 14 15  1  0
 14 16  2  0
  2 17  1  0
 17 18  1  0
 18 19  2  0
 18 20  1  0
M  CHG  2  14   1  15  -1
M  END
>  <Compound Name>  (8) 
2-acetoxy-7-nitrofluorene

>  <Formula>  (8) 
C15H11NO4

>  <LogP>  (8) 
3.46

>  <LUMO>  (8) 
-1.437

>  <MOL_ID>  (8) 
8

>  <Activity>  (8) 
1.86

$$$$
2-methyl-7-nitrofluorene
     RDKit          2D

 17 19  0  0  0  0  0  0  0  0999 V2000
    2.3800    3.5000    0.0000 C   0  0  0  0  0  0  0  0  0  0  0  0
    2.3800    2.1000    0.0000 C   0  0  0  0  0  0  0  0  0  0  0  0
    3.5933    1.4000    0.0000 C   0  0  0  0  0  0  0  0  0  0  0  0
    4.8067    2.1000    0.0000 C   0  0  0  0  0  0  0  0  0  0  0  0
    4.8067    3.5000    0.0000 C   0  0  0  0  0  0  0  0  0  0  0  0
    3.5933    4.1533    0.0000 C   0  0  0  0  0  0  0  0  0  0  0  0
    6.0200    1.4000    0.0000 C   0  0  0  0  0  0  0  0  0  0  0  0
    7.2333    2.1000    0.0000 C   0  0  0  0  0  0  0  0  0  0  0  0
    7.2333    3.5000    0.0000 C   0  0  0  0  0  0  0  0  0  0  0  0
    8.4467    1.4000    0.0000 C   0  0  0  0  0  0  0  0  0  0  0  0
    9.6600    2.1000    0.0000 C   0  0  0  0  0  0  0  0  0  0  0  0
    9.6600    3.5000    0.0000 C   0  0  0  0  0  0  0  0  0  0  0  0
    8.4467    4.1533    0.0000 C   0  0  0  0  0  0  0  0  0  0  0  0
   10.8733    1.4000    0.0000 C   0  0  0  0  0  0  0  0  0  0  0  0
    1.1667    1.4000    0.0000 N   0  0  0  0  0  0  0  0  0  0  0  0
   -0.0000    2.1000    0.0000 O   0  0  0  0  0  0  0  0  0  0  0  0
    1.1667    0.0000    0.0000 O   0  0  0  0  0  0  0  0  0  0  0  0
  1  2  2  0
  2  3  1  0
  3  4  2  0
  4  5  1  0
  5  6  2  0
  1  6  1  0
  4  7  1  0
  7  8  1  0
  8  9  2  0
  5  9  1  0
  8 10  1  0
 10 11  2  0
 11 12  1  0
 12 13  2  0
  9 13  1  0
 11 14  1  0
  2 15  1  0
 15 16  1  0
 15 17  2  0
M  CHG  2  15   1  16  -1
M  END
>  <Compound Name>  (9) 
2-methyl-7-nitrofluorene

>  <Formula>  (9) 
C14H11NO2

>  <LogP>  (9) 
4.62

>  <LUMO>  (9) 
-1.387

>  <MOL_ID>  (9) 
10

>  <Activity>  (9) 
2.36

$$$$
9-nitrophenanthrene
     RDKit          2D

 17 19  0  0  0  0  0  0  0  0999 V2000
    0.6533    2.4267    0.0000 C   0  0  0  0  0  0  0  0  0  0  0  0
    0.0000    1.2133    0.0000 C   0  0  0  0  0  0  0  0  0  0  0  0
    0.6533   -0.0000    0.0000 C   0  0  0  0  0  0  0  0  0  0  0  0
    2.0533   -0.0000    0.0000 C   0  0  0  0  0  0  0  0  0  0  0  0
    2.7533    1.2133    0.0000 C   0  0  0  0  0  0  0  0  0  0  0  0
    2.0533    2.4267    0.0000 C   0  0  0  0  0  0  0  0  0  0  0  0
    4.1533    1.2133    0.0000 C   0  0  0  0  0  0  0  0  0  0  0  0
    4.8533    2.4267    0.0000 C   0  0  0  0  0  0  0  0  0  0  0  0
    4.1533    3.6400    0.0000 C   0  0  0  0  0  0  0  0  0  0  0  0
    2.7533    3.6400    0.0000 C   0  0  0  0  0  0  0  0  0  0  0  0
    4.8533   -0.0000    0.0000 C   0  0  0  0  0  0  0  0  0  0  0  0
    6.2533   -0.0000    0.0000 C   0  0  0  0  0  0  0  0  0  0  0  0
    7.0000    1.2133    0.0000 C   0  0  0  0  0  0  0  0  0  0  0  0
    6.2533    2.4267    0.0000 C   0  0  0  0  0  0  0  0  0  0  0  0
    2.0533    4.8533    0.0000 N   0  0  0  0  0  0  0  0  0  0  0  0
    2.7533    6.0200    0.0000 O   0  0  0  0  0  0  0  0  0  0  0  0
    0.6533    4.8533    0.0000 O   0  0  0  0  0  0  0  0  0  0  0  0
  1  2  2  0
  2  3  1  0
  3  4  2  0
  4  5  1  0
  5  6  2  0
  1  6  1  0
  5  7  1  0
  7  8  2  0
  8  9  1  0
  9 10  2  0
  6 10  1  0
  7 11  1  0
 11 12  2  0
 12 13  1  0
 13 14  2  0
  8 14  1  0
 10 15  1  0
 15 16  1  0
 15 17  2  0
M  CHG  2  15   1  16  -1
M  END
>  <Compound Name>  (10) 
9-nitrophenanthrene

>  <Formula>  (10) 
C14H9NO2

>  <LogP>  (10) 
4.23

>  <LUMO>  (10) 
-1.254

>  <MOL_ID>  (10) 
11

>  <Activity>  (10) 
2.25

$$$$
1-amino-8-nitropyrene
     RDKit          2D

 20 23  0  0  0  0  0  0  0  0999 V2000
    2.3321    2.0988    0.0000 C   0  0  0  0  0  0  0  0  0  0  0  0
    2.3321    0.6996    0.0000 C   0  0  0  0  0  0  0  0  0  0  0  0
    3.5447    0.0000    0.0000 C   0  0  0  0  0  0  0  0  0  0  0  0
    4.7574    0.6996    0.0000 C   0  0  0  0  0  0  0  0  0  0  0  0
    4.7574    2.0988    0.0000 C   0  0  0  0  0  0  0  0  0  0  0  0
    3.5447    2.7985    0.0000 C   0  0  0  0  0  0  0  0  0  0  0  0
    5.9700    2.7985    0.0000 C   0  0  0  0  0  0  0  0  0  0  0  0
    5.9700    4.1977    0.0000 C   0  0  0  0  0  0  0  0  0  0  0  0
    4.7574    4.8973    0.0000 C   0  0  0  0  0  0  0  0  0  0  0  0
    3.5447    4.1977    0.0000 C   0  0  0  0  0  0  0  0  0  0  0  0
    7.1827    2.0988    0.0000 C   0  0  0  0  0  0  0  0  0  0  0  0
    8.3954    2.7985    0.0000 C   0  0  0  0  0  0  0  0  0  0  0  0
    8.3954    4.1977    0.0000 C   0  0  0  0  0  0  0  0  0  0  0  0
    7.1827    4.8973    0.0000 C   0  0  0  0  0  0  0  0  0  0  0  0
    5.9700    0.0000    0.0000 C   0  0  0  0  0  0  0  0  0  0  0  0
    7.1827    0.6996    0.0000 C   0  0  0  0  0  0  0  0  0  0  0  0
    1.1194    2.7985    0.0000 N   0  0  0  0  0  0  0  0  0  0  0  0
    1.1194    4.1977    0.0000 O   0  0  0  0  0  0  0  0  0  0  0  0
   -0.0000    2.0988    0.0000 O   0  0  0  0  0  0  0  0  0  0  0  0
    7.1827    6.2033    0.0000 N   0  0  0  0  0  0  0  0  0  0  0  0
  1  2  2  0
  2  3  1  0
  3  4  2  0
  4  5  1  0
  5  6  2  0
  1  6  1  0
  5  7  1  0
  7  8  2  0
  8  9  1  0
  9 10  2  0
  6 10  1  0
  7 11  1  0
 11 12  2  0
 12 13  1  0
 13 14  2  0
  8 14  1  0
  4 15  1  0
 15 16  2  0
 11 16  1  0
  1 17  1  0
 17 18  1  0
 17 19  2  0
 14 20  1  0
M  CHG  2  17   1  18  -1
M  END
>  <Compound Name>  (11) 
1-amino-8-nitropyrene

>  <Formula>  (11) 
C16H10N2O2

>  <LogP>  (11) 
3.63

>  <LUMO>  (11) 
-1.627

>  <MOL_ID>  (11) 
12

>  <Activity>  (11) 
2.43

$$$$
2,4-dinitrofluoranthene
     RDKit          2D

 22 25  0  0  0  0  0  0  0  0999 V2000
    2.9867    8.7267    0.0000 C   0  0  0  0  0  0  0  0  0  0  0  0
    1.5867    8.7267    0.0000 C   0  0  0  0  0  0  0  0  0  0  0  0
    0.8867    7.5134    0.0000 C   0  0  0  0  0  0  0  0  0  0  0  0
    1.5867    6.2534    0.0000 C   0  0  0  0  0  0  0  0  0  0  0  0
    2.9867    6.2534    0.0000 C   0  0  0  0  0  0  0  0  0  0  0  0
    3.6867    7.5134    0.0000 C   0  0  0  0  0  0  0  0  0  0  0  0
    1.1667    4.9000    0.0000 C   0  0  0  0  0  0  0  0  0  0  0  0
    2.2867    4.0600    0.0000 C   0  0  0  0  0  0  0  0  0  0  0  0
    3.4067    4.8534    0.0000 C   0  0  0  0  0  0  0  0  0  0  0  0
    2.2867    2.8000    0.0000 C   0  0  0  0  0  0  0  0  0  0  0  0
    1.1667    2.1000    0.0000 C   0  0  0  0  0  0  0  0  0  0  0  0
   -0.0000    4.2000    0.0000 C   0  0  0  0  0  0  0  0  0  0  0  0
   -0.0000    2.8000    0.0000 C   0  0  0  0  0  0  0  0  0  0  0  0
    3.4067    2.1934    0.0000 C   0  0  0  0  0  0  0  0  0  0  0  0
    4.5267    2.8000    0.0000 C   0  0  0  0  0  0  0  0  0  0  0  0
    4.5267    4.0600    0.0000 C   0  0  0  0  0  0  0  0  0  0  0  0
    5.7867    2.1000    0.0000 N   0  0  0  0  0  0  0  0  0  0  0  0
    5.7867    0.7000    0.0000 O   0  0  0  0  0  0  0  0  0  0  0  0
    6.9067    2.8000    0.0000 O   0  0  0  0  0  0  0  0  0  0  0  0
    1.1667    0.7000    0.0000 N   0  0  0  0  0  0  0  0  0  0  0  0
   -0.0000    0.0000    0.0000 O   0  0  0  0  0  0  0  0  0  0  0  0
    2.4267    0.0000    0.0000 O   0  0  0  0  0  0  0  0  0  0  0  0
  1  2  2  0
  2  3  1  0
  3  4  2  0
  4  5  1  0
  5  6  2  0
  1  6  1  0
  4  7  1  0
  7  8  1  0
  8  9  2  0
  5  9  1  0
 10 11  1  0
  8 10  1  0
  7 12  2  0
 12 13  1  0
 11 13  2  0
 10 14  2  0
 14 15  1  0
 15 16  2  0
  9 16  1  0
 15 17  1  0
 17 18  1  0
 17 19  2  0
 11 20  1  0
 20 21  1  0
 20 22  2  0
M  CHG  4  17   1  18  -1  20   1  21  -1
M  END
>  <Compound Name>  (12) 
2,4-dinitrofluoranthene

>  <Formula>  (12) 
C16H8N2O4

>  <LogP>  (12) 
4.44

>  <LUMO>  (12) 
-2.292

>  <MOL_ID>  (12) 
13

>  <Activity>  (12) 
3.78

$$$$
1-methyl-6-nitroindazole
     RDKit          2D

 13 14  0  0  0  0  0  0  0  0999 V2000
    2.3787    3.5447    0.0000 C   0  0  0  0  0  0  0  0  0  0  0  0
    2.3787    2.0988    0.0000 C   0  0  0  0  0  0  0  0  0  0  0  0
    3.5913    1.3992    0.0000 C   0  0  0  0  0  0  0  0  0  0  0  0
    4.7574    2.0988    0.0000 C   0  0  0  0  0  0  0  0  0  0  0  0
    4.7574    3.5447    0.0000 C   0  0  0  0  0  0  0  0  0  0  0  0
    3.5913    4.1510    0.0000 C   0  0  0  0  0  0  0  0  0  0  0  0
    6.1566    1.7257    0.0000 N   0  0  0  0  0  0  0  0  0  0  0  0
    6.9028    2.7984    0.0000 N   0  0  0  0  0  0  0  0  0  0  0  0
    6.1566    3.9645    0.0000 C   0  0  0  0  0  0  0  0  0  0  0  0
    1.1660    1.3992    0.0000 N   0  0  0  0  0  0  0  0  0  0  0  0
   -0.0000    2.0988    0.0000 O   0  0  0  0  0  0  0  0  0  0  0  0
    1.1660    0.0000    0.0000 O   0  0  0  0  0  0  0  0  0  0  0  0
    6.5297    0.3731    0.0000 C   0  0  0  0  0  0  0  0  0  0  0  0
  1  2  2  0
  2  3  1  0
  3  4  2  0
  4  5  1  0
  5  6  2  0
  1  6  1  0
  4  7  1  0
  7  8  1  0
  8  9  2  0
  5  9  1  0
  2 10  1  0
 10 11  1  0
 10 12  2  0
  7 13  1  0
M  CHG  2  10   1  11  -1
M  END
>  <Compound Name>  (13) 
1-methyl-6-nitroindazole

>  <Formula>  (13) 
C8H8N3O2

>  <LogP>  (13) 
1.77

>  <LUMO>  (13) 
-1.289

>  <MOL_ID>  (13) 
14

>  <Activity>  (13) 
-1.1

$$$$
1-nitropyrene
     RDKit          2D

 19 22  0  0  0  0  0  0  0  0999 V2000
    0.0000    2.0989    0.0000 C   0  0  0  0  0  0  0  0  0  0  0  0
    0.0000    0.6996    0.0000 C   0  0  0  0  0  0  0  0  0  0  0  0
    1.1660    0.0000    0.0000 C   0  0  0  0  0  0  0  0  0  0  0  0
    2.3787    0.6996    0.0000 C   0  0  0  0  0  0  0  0  0  0  0  0
    2.3787    2.0989    0.0000 C   0  0  0  0  0  0  0  0  0  0  0  0
    1.1660    2.7985    0.0000 C   0  0  0  0  0  0  0  0  0  0  0  0
    3.5914    2.7985    0.0000 C   0  0  0  0  0  0  0  0  0  0  0  0
    3.5914    4.1977    0.0000 C   0  0  0  0  0  0  0  0  0  0  0  0
    2.3787    4.8973    0.0000 C   0  0  0  0  0  0  0  0  0  0  0  0
    1.1660    4.1977    0.0000 C   0  0  0  0  0  0  0  0  0  0  0  0
    4.8040    2.0989    0.0000 C   0  0  0  0  0  0  0  0  0  0  0  0
    6.0167    2.7985    0.0000 C   0  0  0  0  0  0  0  0  0  0  0  0
    6.0167    4.1977    0.0000 C   0  0  0  0  0  0  0  0  0  0  0  0
    4.8040    4.8973    0.0000 C   0  0  0  0  0  0  0  0  0  0  0  0
    3.5914    0.0000    0.0000 C   0  0  0  0  0  0  0  0  0  0  0  0
    4.8040    0.6996    0.0000 C   0  0  0  0  0  0  0  0  0  0  0  0
    4.8040    6.2965    0.0000 N   0  0  0  0  0  0  0  0  0  0  0  0
    6.0167    6.9962    0.0000 O   0  0  0  0  0  0  0  0  0  0  0  0
    3.5914    6.9962    0.0000 O   0  0  0  0  0  0  0  0  0  0  0  0
  1  2  2  0
  2  3  1  0
  3  4  2  0
  4  5  1  0
  5  6  2  0
  1  6  1  0
  5  7  1  0
  7  8  2  0
  8  9  1  0
  9 10  2  0
  6 10  1  0
  7 11  1  0
 11 12  2  0
 12 13  1  0
 13 14  2  0
  8 14  1  0
  4 15  1  0
 15 16  2  0
 11 16  1  0
 14 17  1  0
 17 18  1  0
 17 19  2  0
M  CHG  2  17   1  18  -1
M  END
>  <Compound Name>  (14) 
1-nitropyrene

>  <Formula>  (14) 
C16H9NO2

>  <LogP>  (14) 
4.69

>  <LUMO>  (14) 
-1.698

>  <MOL_ID>  (14) 
15

>  <Activity>  (14) 
2.78

$$$$
3,4-dinitrofluoranthene
     RDKit          2D

 22 25  0  0  0  0  0  0  0  0999 V2000
    3.0465    8.8063    0.0000 C   0  0  0  0  0  0  0  0  0  0  0  0
    1.6185    8.8063    0.0000 C   0  0  0  0  0  0  0  0  0  0  0  0
    0.9044    7.5210    0.0000 C   0  0  0  0  0  0  0  0  0  0  0  0
    1.6185    6.2834    0.0000 C   0  0  0  0  0  0  0  0  0  0  0  0
    3.0465    6.2834    0.0000 C   0  0  0  0  0  0  0  0  0  0  0  0
    3.7605    7.5210    0.0000 C   0  0  0  0  0  0  0  0  0  0  0  0
    1.1900    4.9506    0.0000 C   0  0  0  0  0  0  0  0  0  0  0  0
    2.3325    4.0461    0.0000 C   0  0  0  0  0  0  0  0  0  0  0  0
    3.4749    4.8554    0.0000 C   0  0  0  0  0  0  0  0  0  0  0  0
    2.3325    2.7609    0.0000 C   0  0  0  0  0  0  0  0  0  0  0  0
    1.1900    2.0469    0.0000 C   0  0  0  0  0  0  0  0  0  0  0  0
    0.0000    4.1889    0.0000 C   0  0  0  0  0  0  0  0  0  0  0  0
    0.0000    2.7609    0.0000 C   0  0  0  0  0  0  0  0  0  0  0  0
    3.4749    2.0945    0.0000 C   0  0  0  0  0  0  0  0  0  0  0  0
    4.6173    2.7609    0.0000 C   0  0  0  0  0  0  0  0  0  0  0  0
    4.6173    4.0461    0.0000 C   0  0  0  0  0  0  0  0  0  0  0  0
    1.1900    0.6188    0.0000 N   0  0  0  0  0  0  0  0  0  0  0  0
    0.3332    0.0476    0.0000 O   0  0  0  0  0  0  0  0  0  0  0  0
    1.9041    0.1428    0.0000 O   0  0  0  0  0  0  0  0  0  0  0  0
    3.5701    0.8568    0.0000 N   0  0  0  0  0  0  0  0  0  0  0  0
    2.7609   -0.0000    0.0000 O   0  0  0  0  0  0  0  0  0  0  0  0
    4.2365    0.1904    0.0000 O   0  0  0  0  0  0  0  0  0  0  0  0
  1  2  2  0
  2  3  1  0
  3  4  2  0
  4  5  1  0
  5  6  2  0
  1  6  1  0
  4  7  1  0
  7  8  1  0
  8  9  2  0
  5  9  1  0
 10 11  1  0
  8 10  1  0
  7 12  2  0
 12 13  1  0
 11 13  2  0
 10 14  2  0
 14 15  1  0
 15 16  2  0
  9 16  1  0
 11 17  1  0
 17 18  1  0
 17 19  2  0
 14 20  1  0
 20 21  1  0
 20 22  2  0
M  CHG  4  17   1  18  -1  20   1  21  -1
M  END
>  <Compound Name>  (15) 
3,4-dinitrofluoranthene

>  <Formula>  (15) 
C16H8N2O4

>  <LogP>  (15) 
4.44

>  <LUMO>  (15) 
-2.172

>  <MOL_ID>  (15) 
16

>  <Activity>  (15) 
3.62

$$$$
2-nitro-m-phenylenediamine
     RDKit          2D

 11 11  0  0  0  0  0  0  0  0999 V2000
    0.6533    2.4267    0.0000 C   0  0  0  0  0  0  0  0  0  0  0  0
    2.0533    2.4267    0.0000 C   0  0  0  0  0  0  0  0  0  0  0  0
    2.7533    3.6400    0.0000 C   0  0  0  0  0  0  0  0  0  0  0  0
    2.0533    4.8533    0.0000 C   0  0  0  0  0  0  0  0  0  0  0  0
    0.6533    4.8533    0.0000 C   0  0  0  0  0  0  0  0  0  0  0  0
    0.0000    3.6400    0.0000 C   0  0  0  0  0  0  0  0  0  0  0  0
    4.1533    3.6400    0.0000 N   0  0  0  0  0  0  0  0  0  0  0  0
    0.0000    1.2133    0.0000 N   0  0  0  0  0  0  0  0  0  0  0  0
    2.7533    1.2133    0.0000 N   0  0  0  0  0  0  0  0  0  0  0  0
    2.0533   -0.0000    0.0000 O   0  0  0  0  0  0  0  0  0  0  0  0
    4.1533    1.2133    0.0000 O   0  0  0  0  0  0  0  0  0  0  0  0
  1  2  2  0
  2  3  1  0
  3  4  2  0
  4  5  1  0
  5  6  2  0
  1  6  1  0
  3  7  1  0
  1  8  1  0
  2  9  1  0
  9 10  1  0
  9 11  2  0
M  CHG  2   9   1  10  -1
M  END
>  <Compound Name>  (16) 
2-nitro-m-phenylenediamine

>  <Formula>  (16) 
C6H7N3O2

>  <LogP>  (16) 
0.87

>  <LUMO>  (16) 
-0.529

>  <MOL_ID>  (16) 
17

>  <Activity>  (16) 
-3

$$$$
3-nitro-9-fluorenone
     RDKit          2D

 17 19  0  0  0  0  0  0  0  0999 V2000
    0.0000    3.5000    0.0000 C   0  0  0  0  0  0  0  0  0  0  0  0
    0.0000    2.1000    0.0000 C   0  0  0  0  0  0  0  0  0  0  0  0
    1.1667    1.4000    0.0000 C   0  0  0  0  0  0  0  0  0  0  0  0
    2.4267    2.1000    0.0000 C   0  0  0  0  0  0  0  0  0  0  0  0
    2.4267    3.5000    0.0000 C   0  0  0  0  0  0  0  0  0  0  0  0
    1.1667    4.1533    0.0000 C   0  0  0  0  0  0  0  0  0  0  0  0
    3.6400    1.4000    0.0000 C   0  0  0  0  0  0  0  0  0  0  0  0
    4.8067    2.1000    0.0000 C   0  0  0  0  0  0  0  0  0  0  0  0
    4.8067    3.5000    0.0000 C   0  0  0  0  0  0  0  0  0  0  0  0
    6.0667    1.4000    0.0000 C   0  0  0  0  0  0  0  0  0  0  0  0
    7.2800    2.1000    0.0000 C   0  0  0  0  0  0  0  0  0  0  0  0
    7.2800    3.5000    0.0000 C   0  0  0  0  0  0  0  0  0  0  0  0
    6.0667    4.1533    0.0000 C   0  0  0  0  0  0  0  0  0  0  0  0
    3.6400    0.0000    0.0000 O   0  0  0  0  0  0  0  0  0  0  0  0
    8.4467    4.2000    0.0000 N   0  0  0  0  0  0  0  0  0  0  0  0
    9.6600    3.5000    0.0000 O   0  0  0  0  0  0  0  0  0  0  0  0
    8.4467    5.6000    0.0000 O   0  0  0  0  0  0  0  0  0  0  0  0
  1  2  2  0
  2  3  1  0
  3  4  2  0
  4  5  1  0
  5  6  2  0
  1  6  1  0
  4  7  1  0
  7  8  1  0
  8  9  2  0
  5  9  1  0
  8 10  1  0
 10 11  2  0
 11 12  1  0
 12 13  2  0
  9 13  1  0
  7 14  2  0
 12 15  1  0
 15 16  1  0
 15 17  2  0
M  CHG  2  15   1  16  -1
M  END
>  <Compound Name>  (17) 
3-nitro-9-fluorenone

>  <Formula>  (17) 
C13H7NO3

>  <LogP>  (17) 
3.06

>  <LUMO>  (17) 
-1.861

>  <MOL_ID>  (17) 
18

>  <Activity>  (17) 
2.13

$$$$
6-nitroquinoline
     RDKit          2D

 13 14  0  0  0  0  0  0  0  0999 V2000
    2.3787    0.6996    0.0000 C   0  0  0  0  0  0  0  0  0  0  0  0
    3.5913    0.0000    0.0000 C   0  0  0  0  0  0  0  0  0  0  0  0
    4.8040    0.6996    0.0000 C   0  0  0  0  0  0  0  0  0  0  0  0
    4.8040    2.0988    0.0000 C   0  0  0  0  0  0  0  0  0  0  0  0
    3.5913    2.7984    0.0000 C   0  0  0  0  0  0  0  0  0  0  0  0
    2.3787    2.0988    0.0000 C   0  0  0  0  0  0  0  0  0  0  0  0
    6.0167    0.0000    0.0000 N   0  0  0  0  0  0  0  0  0  0  0  0
    7.2293    0.6996    0.0000 C   0  0  0  0  0  0  0  0  0  0  0  0
    7.2293    2.0988    0.0000 C   0  0  0  0  0  0  0  0  0  0  0  0
    6.0167    2.7984    0.0000 C   0  0  0  0  0  0  0  0  0  0  0  0
    1.1660    2.7984    0.0000 N   0  0  0  0  0  0  0  0  0  0  0  0
    1.1660    4.1510    0.0000 O   0  0  0  0  0  0  0  0  0  0  0  0
    0.0000    2.0988    0.0000 O   0  0  0  0  0  0  0  0  0  0  0  0
  1  2  2  0
  2  3  1  0
  3  4  2  0
  4  5  1  0
  5  6  2  0
  1  6  1  0
  3  7  1  0
  7  8  2  0
  8  9  1  0
  9 10  2  0
  4 10  1  0
  6 11  1  0
 11 12  1  0
 11 13  2  0
M  CHG  2  11   1  12  -1
M  END
>  <Compound Name>  (18) 
6-nitroquinoline

>  <Formula>  (18) 
C9H6N2O2

>  <LogP>  (18) 
1.84

>  <LUMO>  (18) 
-1.478

>  <MOL_ID>  (18) 
19

>  <Activity>  (18) 
-1.08

$$$$
2-cyano-7-nitrofluorene
     RDKit          2D

 18 20  0  0  0  0  0  0  0  0999 V2000
    2.3787    3.4981    0.0000 C   0  0  0  0  0  0  0  0  0  0  0  0
    2.3787    2.0988    0.0000 C   0  0  0  0  0  0  0  0  0  0  0  0
    3.5913    1.3992    0.0000 C   0  0  0  0  0  0  0  0  0  0  0  0
    4.8040    2.0988    0.0000 C   0  0  0  0  0  0  0  0  0  0  0  0
    4.8040    3.4981    0.0000 C   0  0  0  0  0  0  0  0  0  0  0  0
    3.5913    4.1977    0.0000 C   0  0  0  0  0  0  0  0  0  0  0  0
    6.0167    1.3992    0.0000 C   0  0  0  0  0  0  0  0  0  0  0  0
    7.2293    2.0988    0.0000 C   0  0  0  0  0  0  0  0  0  0  0  0
    7.2293    3.4981    0.0000 C   0  0  0  0  0  0  0  0  0  0  0  0
    8.4420    1.3992    0.0000 C   0  0  0  0  0  0  0  0  0  0  0  0
    9.6547    2.0988    0.0000 C   0  0  0  0  0  0  0  0  0  0  0  0
    9.6547    3.4981    0.0000 C   0  0  0  0  0  0  0  0  0  0  0  0
    8.4420    4.1977    0.0000 C   0  0  0  0  0  0  0  0  0  0  0  0
   10.8673    1.3992    0.0000 C   0  0  0  0  0  0  0  0  0  0  0  0
   12.0800    0.6996    0.0000 N   0  0  0  0  0  0  0  0  0  0  0  0
    1.1660    1.3992    0.0000 N   0  0  0  0  0  0  0  0  0  0  0  0
    0.0000    2.0988    0.0000 O   0  0  0  0  0  0  0  0  0  0  0  0
    1.1660    0.0000    0.0000 O   0  0  0  0  0  0  0  0  0  0  0  0
  1  2  2  0
  2  3  1  0
  3  4  2  0
  4  5  1  0
  5  6  2  0
  1  6  1  0
  4  7  1  0
  7  8  1  0
  8  9  2  0
  5  9  1  0
  8 10  1  0
 10 11  2  0
 11 12  1  0
 12 13  2  0
  9 13  1  0
 11 14  1  0
 14 15  3  0
  2 16  1  0
 16 17  1  0
 16 18  2  0
M  CHG  2  16   1  17  -1
M  END
>  <Compound Name>  (19) 
2-cyano-7-nitrofluorene

>  <Formula>  (19) 
C14H8N2O2

>  <LogP>  (19) 
3.4

>  <LUMO>  (19) 
-1.764

>  <MOL_ID>  (19) 
20

>  <Activity>  (19) 
2.51

$$$$
4,3'-dinitrobiphenyl
     RDKit          2D

 18 19  0  0  0  0  0  0  0  0999 V2000
    2.0522    2.4253    0.0000 C   0  0  0  0  0  0  0  0  0  0  0  0
    1.3526    1.2127    0.0000 C   0  0  0  0  0  0  0  0  0  0  0  0
    2.0522    0.0000    0.0000 C   0  0  0  0  0  0  0  0  0  0  0  0
    3.4514    0.0000    0.0000 C   0  0  0  0  0  0  0  0  0  0  0  0
    4.1510    1.2127    0.0000 C   0  0  0  0  0  0  0  0  0  0  0  0
    3.4514    2.4253    0.0000 C   0  0  0  0  0  0  0  0  0  0  0  0
    5.5503    1.2127    0.0000 C   0  0  0  0  0  0  0  0  0  0  0  0
    6.2499    0.0000    0.0000 C   0  0  0  0  0  0  0  0  0  0  0  0
    7.6491    0.0000    0.0000 C   0  0  0  0  0  0  0  0  0  0  0  0
    8.3487    1.2127    0.0000 C   0  0  0  0  0  0  0  0  0  0  0  0
    7.6491    2.4253    0.0000 C   0  0  0  0  0  0  0  0  0  0  0  0
    6.2499    2.4253    0.0000 C   0  0  0  0  0  0  0  0  0  0  0  0
    9.7480    1.2127    0.0000 N   0  0  0  0  0  0  0  0  0  0  0  0
   10.4476    0.0000    0.0000 O   0  0  0  0  0  0  0  0  0  0  0  0
   10.4476    2.4253    0.0000 O   0  0  0  0  0  0  0  0  0  0  0  0
    1.3526    3.6380    0.0000 N   0  0  0  0  0  0  0  0  0  0  0  0
    2.0522    4.8507    0.0000 O   0  0  0  0  0  0  0  0  0  0  0  0
    0.0000    3.6380    0.0000 O   0  0  0  0  0  0  0  0  0  0  0  0
  1  2  2  0
  2  3  1  0
  3  4  2  0
  4  5  1  0
  5  6  2  0
  1  6  1  0
  5  7  1  0
  7  8  2  0
  8  9  1  0
  9 10  2  0
 10 11  1  0
 11 12  2  0
  7 12  1  0
 10 13  1  0
 13 14  1  0
 13 15  2  0
  1 16  1  0
 16 17  1  0
 16 18  2  0
M  CHG  4  13   1  14  -1  16   1  17  -1
M  END
>  <Compound Name>  (20) 
4,3'-dinitrobiphenyl

>  <Formula>  (20) 
C12H8N2O4

>  <LogP>  (20) 
3.52

>  <LUMO>  (20) 
-1.665

>  <MOL_ID>  (20) 
21

>  <Activity>  (20) 
0.23

$$$$
2-iodo-7-nitrofluorene
     RDKit          2D

 17 19  0  0  0  0  0  0  0  0999 V2000
    2.3333    3.5000    0.0000 C   0  0  0  0  0  0  0  0  0  0  0  0
    2.3333    2.1000    0.0000 C   0  0  0  0  0  0  0  0  0  0  0  0
    3.5467    1.4000    0.0000 C   0  0  0  0  0  0  0  0  0  0  0  0
    4.7600    2.1000    0.0000 C   0  0  0  0  0  0  0  0  0  0  0  0
    4.7600    3.5000    0.0000 C   0  0  0  0  0  0  0  0  0  0  0  0
    3.5467    4.1533    0.0000 C   0  0  0  0  0  0  0  0  0  0  0  0
    5.9733    1.4000    0.0000 C   0  0  0  0  0  0  0  0  0  0  0  0
    7.1867    2.1000    0.0000 C   0  0  0  0  0  0  0  0  0  0  0  0
    7.1867    3.5000    0.0000 C   0  0  0  0  0  0  0  0  0  0  0  0
    8.4000    1.4000    0.0000 C   0  0  0  0  0  0  0  0  0  0  0  0
    9.6133    2.1000    0.0000 C   0  0  0  0  0  0  0  0  0  0  0  0
    9.6133    3.5000    0.0000 C   0  0  0  0  0  0  0  0  0  0  0  0
    8.4000    4.1533    0.0000 C   0  0  0  0  0  0  0  0  0  0  0  0
    1.1667    1.4000    0.0000 N   0  0  0  0  0  0  0  0  0  0  0  0
   -0.0000    2.1000    0.0000 O   0  0  0  0  0  0  0  0  0  0  0  0
    1.1667   -0.0000    0.0000 O   0  0  0  0  0  0  0  0  0  0  0  0
   10.8267    1.4000    0.0000 I   0  0  0  0  0  0  0  0  0  0  0  0
  1  2  2  0
  2  3  1  0
  3  4  2  0
  4  5  1  0
  5  6  2  0
  1  6  1  0
  4  7  1  0
  7  8  1  0
  8  9  2  0
  5  9  1  0
  8 10  1  0
 10 11  2  0
 11 12  1  0
 12 13  2  0
  9 13  1  0
  2 14  1  0
 14 15  1  0
 14 16  2  0
 11 17  1  0
M  CHG  2  14   1  15  -1
M  END
>  <Compound Name>  (21) 
2-iodo-7-nitrofluorene

>  <Formula>  (21) 
C13H8INO2

>  <LogP>  (21) 
5.09

>  <LUMO>  (21) 
-1.602

>  <MOL_ID>  (21) 
22

>  <Activity>  (21) 
2.97

$$$$
2-nitrobenz[j]aceanthrylene
     RDKit          2D

 23 27  0  0  0  0  0  0  0  0999 V2000
    6.0167    4.1977    0.0000 C   0  0  0  0  0  0  0  0  0  0  0  0
    6.0167    2.7985    0.0000 C   0  0  0  0  0  0  0  0  0  0  0  0
    7.2294    2.0988    0.0000 C   0  0  0  0  0  0  0  0  0  0  0  0
    8.4420    2.7985    0.0000 C   0  0  0  0  0  0  0  0  0  0  0  0
    8.4420    4.1977    0.0000 C   0  0  0  0  0  0  0  0  0  0  0  0
    7.2294    4.8973    0.0000 C   0  0  0  0  0  0  0  0  0  0  0  0
    4.8040    4.8973    0.0000 C   0  0  0  0  0  0  0  0  0  0  0  0
    3.5914    4.1977    0.0000 C   0  0  0  0  0  0  0  0  0  0  0  0
    3.5914    2.7985    0.0000 C   0  0  0  0  0  0  0  0  0  0  0  0
    4.8040    2.0988    0.0000 C   0  0  0  0  0  0  0  0  0  0  0  0
    7.2294    6.2965    0.0000 C   0  0  0  0  0  0  0  0  0  0  0  0
    4.8040    6.2965    0.0000 C   0  0  0  0  0  0  0  0  0  0  0  0
    2.3787    4.8973    0.0000 C   0  0  0  0  0  0  0  0  0  0  0  0
    1.1660    4.1977    0.0000 C   0  0  0  0  0  0  0  0  0  0  0  0
    1.1660    2.7985    0.0000 C   0  0  0  0  0  0  0  0  0  0  0  0
    2.3787    2.0988    0.0000 C   0  0  0  0  0  0  0  0  0  0  0  0
   -0.0000    2.0988    0.0000 C   0  0  0  0  0  0  0  0  0  0  0  0
   -0.0000    0.6996    0.0000 C   0  0  0  0  0  0  0  0  0  0  0  0
    1.1660   -0.0000    0.0000 C   0  0  0  0  0  0  0  0  0  0  0  0
    2.3787    0.6996    0.0000 C   0  0  0  0  0  0  0  0  0  0  0  0
    8.2088    7.2760    0.0000 N   0  0  0  0  0  0  0  0  0  0  0  0
    9.5614    6.9029    0.0000 O   0  0  0  0  0  0  0  0  0  0  0  0
    7.8357    8.6286    0.0000 O   0  0  0  0  0  0  0  0  0  0  0  0
  1  2  1  0
  2  3  2  0
  3  4  1  0
  4  5  2  0
  5  6  1  0
  1  6  2  0
  1  7  1  0
  7  8  2  0
  8  9  1  0
  9 10  2  0
  2 10  1  0
  6 11  1  0
  7 12  1  0
 11 12  2  0
  8 13  1  0
 13 14  2  0
 14 15  1  0
 15 16  2  0
  9 16  1  0
 15 17  1  0
 17 18  2  0
 18 19  1  0
 19 20  2  0
 16 20  1  0
 11 21  1  0
 21 22  1  0
 21 23  2  0
M  CHG  2  21   1  22  -1
M  END
>  <Compound Name>  (22) 
2-nitrobenz[j]aceanthrylene

>  <Formula>  (22) 
C20H11NO2

>  <LogP>  (22) 
5.07

>  <LUMO>  (22) 
-2.164

>  <MOL_ID>  (22) 
23

>  <Activity>  (22) 
0.86

$$$$
1-nitrocoronene
     RDKit          2D

 27 33  0  0  0  0  0  0  0  0999 V2000
    3.5914    4.8973    0.0000 C   0  0  0  0  0  0  0  0  0  0  0  0
    2.3787    4.1977    0.0000 C   0  0  0  0  0  0  0  0  0  0  0  0
    2.3787    2.7985    0.0000 C   0  0  0  0  0  0  0  0  0  0  0  0
    3.5914    2.0988    0.0000 C   0  0  0  0  0  0  0  0  0  0  0  0
    4.8040    2.7985    0.0000 C   0  0  0  0  0  0  0  0  0  0  0  0
    4.8040    4.1977    0.0000 C   0  0  0  0  0  0  0  0  0  0  0  0
    3.5914    6.2965    0.0000 C   0  0  0  0  0  0  0  0  0  0  0  0
    2.3787    6.9962    0.0000 C   0  0  0  0  0  0  0  0  0  0  0  0
    1.1660    6.2965    0.0000 C   0  0  0  0  0  0  0  0  0  0  0  0
    1.1660    4.8973    0.0000 C   0  0  0  0  0  0  0  0  0  0  0  0
    6.0167    2.0988    0.0000 C   0  0  0  0  0  0  0  0  0  0  0  0
    7.2294    2.7985    0.0000 C   0  0  0  0  0  0  0  0  0  0  0  0
    7.2294    4.1977    0.0000 C   0  0  0  0  0  0  0  0  0  0  0  0
    6.0167    4.8973    0.0000 C   0  0  0  0  0  0  0  0  0  0  0  0
    1.1660    2.0988    0.0000 C   0  0  0  0  0  0  0  0  0  0  0  0
    1.1660    0.6996    0.0000 C   0  0  0  0  0  0  0  0  0  0  0  0
    2.3787    0.0000    0.0000 C   0  0  0  0  0  0  0  0  0  0  0  0
    3.5914    0.6996    0.0000 C   0  0  0  0  0  0  0  0  0  0  0  0
   -0.0000    4.1977    0.0000 C   0  0  0  0  0  0  0  0  0  0  0  0
   -0.0000    2.7985    0.0000 C   0  0  0  0  0  0  0  0  0  0  0  0
    6.0167    6.2965    0.0000 C   0  0  0  0  0  0  0  0  0  0  0  0
    4.8040    6.9962    0.0000 C   0  0  0  0  0  0  0  0  0  0  0  0
    4.8040    0.0000    0.0000 C   0  0  0  0  0  0  0  0  0  0  0  0
    6.0167    0.6996    0.0000 C   0  0  0  0  0  0  0  0  0  0  0  0
    4.8040    8.3954    0.0000 N   0  0  0  0  0  0  0  0  0  0  0  0
    6.0167    9.0483    0.0000 O   0  0  0  0  0  0  0  0  0  0  0  0
    3.5914    9.0483    0.0000 O   0  0  0  0  0  0  0  0  0  0  0  0
  1  2  2  0
  2  3  1  0
  3  4  2  0
  4  5  1  0
  5  6  2  0
  1  6  1  0
  1  7  1  0
  7  8  2  0
  8  9  1  0
  9 10  2  0
  2 10  1  0
  5 11  1  0
 11 12  2  0
 12 13  1  0
 13 14  2  0
  6 14  1  0
  3 15  1  0
 15 16  2  0
 16 17  1  0
 17 18  2  0
  4 18  1  0
 10 19  1  0
 19 20  2  0
 15 20  1  0
 14 21  1  0
 21 22  2  0
  7 22  1  0
 18 23  1  0
 23 24  2  0
 11 24  1  0
 22 25  1  0
 25 26  1  0
 25 27  2  0
M  CHG  2  25   1  26  -1
M  END
>  <Compound Name>  (23) 
1-nitrocoronene

>  <Formula>  (23) 
C24H11NO2

>  <LogP>  (23) 
6.79

>  <LUMO>  (23) 
-1.728

>  <MOL_ID>  (23) 
24

>  <Activity>  (23) 
0.45

$$$$
2-hydroxy-7-nitrofluorene
     RDKit          2D

 17 19  0  0  0  0  0  0  0  0999 V2000
    2.3333    3.5000    0.0000 C   0  0  0  0  0  0  0  0  0  0  0  0
    2.3333    2.1000    0.0000 C   0  0  0  0  0  0  0  0  0  0  0  0
    3.5467    1.4000    0.0000 C   0  0  0  0  0  0  0  0  0  0  0  0
    4.7600    2.1000    0.0000 C   0  0  0  0  0  0  0  0  0  0  0  0
    4.7600    3.5000    0.0000 C   0  0  0  0  0  0  0  0  0  0  0  0
    3.5467    4.1533    0.0000 C   0  0  0  0  0  0  0  0  0  0  0  0
    5.9733    1.4000    0.0000 C   0  0  0  0  0  0  0  0  0  0  0  0
    7.1867    2.1000    0.0000 C   0  0  0  0  0  0  0  0  0  0  0  0
    7.1867    3.5000    0.0000 C   0  0  0  0  0  0  0  0  0  0  0  0
    8.4000    1.4000    0.0000 C   0  0  0  0  0  0  0  0  0  0  0  0
    9.6133    2.1000    0.0000 C   0  0  0  0  0  0  0  0  0  0  0  0
    9.6133    3.5000    0.0000 C   0  0  0  0  0  0  0  0  0  0  0  0
    8.4000    4.1533    0.0000 C   0  0  0  0  0  0  0  0  0  0  0  0
    1.1667    1.4000    0.0000 N   0  0  0  0  0  0  0  0  0  0  0  0
   -0.0000    2.1000    0.0000 O   0  0  0  0  0  0  0  0  0  0  0  0
    1.1667   -0.0000    0.0000 O   0  0  0  0  0  0  0  0  0  0  0  0
   10.8267    1.4000    0.0000 O   0  0  0  0  0  0  0  0  0  0  0  0
  1  2  2  0
  2  3  1  0
  3  4  2  0
  4  5  1  0
  5  6  2  0
  1  6  1  0
  4  7  1  0
  7  8  1  0
  8  9  2  0
  5  9  1  0
  8 10  1  0
 10 11  2  0
 11 12  1  0
 12 13  2  0
  9 13  1  0
  2 14  1  0
 14 15  1  0
 14 16  2  0
 11 17  1  0
M  CHG  2  14   1  15  -1
M  END
>  <Compound Name>  (24) 
2-hydroxy-7-nitrofluorene

>  <Formula>  (24) 
C13H9NO3

>  <LogP>  (24) 
3.43

>  <LUMO>  (24) 
-1.398

>  <MOL_ID>  (24) 
25

>  <Activity>  (24) 
1.68

$$$$
1-chloro-2,4-dinitrobenzene
     RDKit          2D

 13 13  0  0  0  0  0  0  0  0999 V2000
    2.0533    3.6400    0.0000 C   0  0  0  0  0  0  0  0  0  0  0  0
    2.7533    2.4267    0.0000 C   0  0  0  0  0  0  0  0  0  0  0  0
    4.1533    2.4267    0.0000 C   0  0  0  0  0  0  0  0  0  0  0  0
    4.8533    3.6400    0.0000 C   0  0  0  0  0  0  0  0  0  0  0  0
    4.1533    4.8533    0.0000 C   0  0  0  0  0  0  0  0  0  0  0  0
    2.7533    4.8533    0.0000 C   0  0  0  0  0  0  0  0  0  0  0  0
    6.2533    3.6400    0.0000 Cl  0  0  0  0  0  0  0  0  0  0  0  0
    4.8533    1.2133    0.0000 N   0  0  0  0  0  0  0  0  0  0  0  0
    4.1533    0.0000    0.0000 O   0  0  0  0  0  0  0  0  0  0  0  0
    6.2533    1.2133    0.0000 O   0  0  0  0  0  0  0  0  0  0  0  0
    0.6533    3.6400    0.0000 N   0  0  0  0  0  0  0  0  0  0  0  0
   -0.0000    4.8533    0.0000 O   0  0  0  0  0  0  0  0  0  0  0  0
   -0.0000    2.4267    0.0000 O   0  0  0  0  0  0  0  0  0  0  0  0
  1  2  2  0
  2  3  1  0
  3  4  2  0
  4  5  1  0
  5  6  2  0
  1  6  1  0
  4  7  1  0
  3  8  1  0
  8  9  1  0
  8 10  2  0
  1 11  1  0
 11 12  1  0
 11 13  2  0
M  CHG  4   8   1   9  -1  11   1  12  -1
M  END
>  <Compound Name>  (25) 
1-chloro-2,4-dinitrobenzene

>  <Formula>  (25) 
C6H3ClN2O4

>  <LogP>  (25) 
2.17

>  <LUMO>  (25) 
-2.072

>  <MOL_ID>  (25) 
26

>  <Activity>  (25) 
0.3

$$$$
1-nitrobenzo[a]pyrene
     RDKit          2D

 23 27  0  0  0  0  0  0  0  0999 V2000
   -0.0000    2.0989    0.0000 C   0  0  0  0  0  0  0  0  0  0  0  0
   -0.0000    0.6996    0.0000 C   0  0  0  0  0  0  0  0  0  0  0  0
    1.1660    0.0000    0.0000 C   0  0  0  0  0  0  0  0  0  0  0  0
    2.3787    0.6996    0.0000 C   0  0  0  0  0  0  0  0  0  0  0  0
    2.3787    2.0989    0.0000 C   0  0  0  0  0  0  0  0  0  0  0  0
    1.1660    2.7985    0.0000 C   0  0  0  0  0  0  0  0  0  0  0  0
    3.5914    0.0000    0.0000 C   0  0  0  0  0  0  0  0  0  0  0  0
    4.8040    0.6996    0.0000 C   0  0  0  0  0  0  0  0  0  0  0  0
    4.8040    2.0989    0.0000 C   0  0  0  0  0  0  0  0  0  0  0  0
    3.5914    2.7985    0.0000 C   0  0  0  0  0  0  0  0  0  0  0  0
    6.0167    0.0000    0.0000 C   0  0  0  0  0  0  0  0  0  0  0  0
    7.2294    0.6996    0.0000 C   0  0  0  0  0  0  0  0  0  0  0  0
    7.2294    2.0989    0.0000 C   0  0  0  0  0  0  0  0  0  0  0  0
    6.0167    2.7985    0.0000 C   0  0  0  0  0  0  0  0  0  0  0  0
    6.0167    4.1977    0.0000 C   0  0  0  0  0  0  0  0  0  0  0  0
    4.8040    4.8973    0.0000 C   0  0  0  0  0  0  0  0  0  0  0  0
    3.5914    4.1977    0.0000 C   0  0  0  0  0  0  0  0  0  0  0  0
    8.4420    2.7985    0.0000 C   0  0  0  0  0  0  0  0  0  0  0  0
    8.4420    4.1977    0.0000 C   0  0  0  0  0  0  0  0  0  0  0  0
    7.2294    4.8973    0.0000 C   0  0  0  0  0  0  0  0  0  0  0  0
    7.2294    6.2965    0.0000 N   0  0  0  0  0  0  0  0  0  0  0  0
    8.4420    6.9495    0.0000 O   0  0  0  0  0  0  0  0  0  0  0  0
    6.0167    6.9495    0.0000 O   0  0  0  0  0  0  0  0  0  0  0  0
  1  2  2  0
  2  3  1  0
  3  4  2  0
  4  5  1  0
  5  6  2  0
  1  6  1  0
  4  7  1  0
  7  8  2  0
  8  9  1  0
  9 10  2  0
  5 10  1  0
  8 11  1  0
 11 12  2  0
 12 13  1  0
 13 14  2  0
  9 14  1  0
 14 15  1  0
 15 16  1  0
 16 17  2  0
 10 17  1  0
 13 18  1  0
 18 19  2  0
 19 20  1  0
 15 20  2  0
 20 21  1  0
 21 22  1  0
 21 23  2  0
M  CHG  2  21   1  22  -1
M  END
>  <Compound Name>  (26) 
1-nitrobenzo[a]pyrene

>  <Formula>  (26) 
C20H11NO2

>  <LogP>  (26) 
5.87

>  <LUMO>  (26) 
-1.801

>  <MOL_ID>  (26) 
27

>  <Activity>  (26) 
2.63

$$$$
2-fluoro-7-nitrofluorene
     RDKit          2D

 17 19  0  0  0  0  0  0  0  0999 V2000
    2.3333    3.5000    0.0000 C   0  0  0  0  0  0  0  0  0  0  0  0
    2.3333    2.1000    0.0000 C   0  0  0  0  0  0  0  0  0  0  0  0
    3.5467    1.4000    0.0000 C   0  0  0  0  0  0  0  0  0  0  0  0
    4.7600    2.1000    0.0000 C   0  0  0  0  0  0  0  0  0  0  0  0
    4.7600    3.5000    0.0000 C   0  0  0  0  0  0  0  0  0  0  0  0
    3.5467    4.1533    0.0000 C   0  0  0  0  0  0  0  0  0  0  0  0
    5.9733    1.4000    0.0000 C   0  0  0  0  0  0  0  0  0  0  0  0
    7.1867    2.1000    0.0000 C   0  0  0  0  0  0  0  0  0  0  0  0
    7.1867    3.5000    0.0000 C   0  0  0  0  0  0  0  0  0  0  0  0
    8.4000    1.4000    0.0000 C   0  0  0  0  0  0  0  0  0  0  0  0
    9.6133    2.1000    0.0000 C   0  0  0  0  0  0  0  0  0  0  0  0
    9.6133    3.5000    0.0000 C   0  0  0  0  0  0  0  0  0  0  0  0
    8.4000    4.1533    0.0000 C   0  0  0  0  0  0  0  0  0  0  0  0
    1.1667    1.4000    0.0000 N   0  0  0  0  0  0  0  0  0  0  0  0
   -0.0000    2.1000    0.0000 O   0  0  0  0  0  0  0  0  0  0  0  0
    1.1667   -0.0000    0.0000 O   0  0  0  0  0  0  0  0  0  0  0  0
   10.8267    1.4000    0.0000 F   0  0  0  0  0  0  0  0  0  0  0  0
  1  2  2  0
  2  3  1  0
  3  4  2  0
  4  5  1  0
  5  6  2  0
  1  6  1  0
  4  7  1  0
  7  8  1  0
  8  9  2  0
  5  9  1  0
  8 10  1  0
 10 11  2  0
 11 12  1  0
 12 13  2  0
  9 13  1  0
  2 14  1  0
 14 15  1  0
 14 16  2  0
 11 17  1  0
M  CHG  2  14   1  15  -1
M  END
>  <Compound Name>  (27) 
2-fluoro-7-nitrofluorene

>  <Formula>  (27) 
C13H8FNO2

>  <LogP>  (27) 
4.11

>  <LUMO>  (27) 
-1.558

>  <MOL_ID>  (27) 
28

>  <Activity>  (27) 
2.68

$$$$
2,4,7-trinitro-9-fluorenone
     RDKit          2D

 23 25  0  0  0  0  0  0  0  0999 V2000
    2.3800    3.5000    0.0000 C   0  0  0  0  0  0  0  0  0  0  0  0
    2.3800    2.1000    0.0000 C   0  0  0  0  0  0  0  0  0  0  0  0
    3.5933    1.4000    0.0000 C   0  0  0  0  0  0  0  0  0  0  0  0
    4.8066    2.1000    0.0000 C   0  0  0  0  0  0  0  0  0  0  0  0
    4.8066    3.5000    0.0000 C   0  0  0  0  0  0  0  0  0  0  0  0
    3.5933    4.1533    0.0000 C   0  0  0  0  0  0  0  0  0  0  0  0
    6.0200    1.4000    0.0000 C   0  0  0  0  0  0  0  0  0  0  0  0
    7.2333    2.1000    0.0000 C   0  0  0  0  0  0  0  0  0  0  0  0
    7.2333    3.5000    0.0000 C   0  0  0  0  0  0  0  0  0  0  0  0
    8.4466    1.4000    0.0000 C   0  0  0  0  0  0  0  0  0  0  0  0
    9.6600    2.1000    0.0000 C   0  0  0  0  0  0  0  0  0  0  0  0
    9.6600    3.5000    0.0000 C   0  0  0  0  0  0  0  0  0  0  0  0
    8.4466    4.1533    0.0000 C   0  0  0  0  0  0  0  0  0  0  0  0
    6.0200   -0.0000    0.0000 O   0  0  0  0  0  0  0  0  0  0  0  0
    1.1667    1.4000    0.0000 N   0  0  0  0  0  0  0  0  0  0  0  0
    0.0000    2.1000    0.0000 O   0  0  0  0  0  0  0  0  0  0  0  0
    1.1667   -0.0000    0.0000 O   0  0  0  0  0  0  0  0  0  0  0  0
   10.8733    1.4000    0.0000 N   0  0  0  0  0  0  0  0  0  0  0  0
   10.8733   -0.0000    0.0000 O   0  0  0  0  0  0  0  0  0  0  0  0
   12.0866    2.1000    0.0000 O   0  0  0  0  0  0  0  0  0  0  0  0
    8.4466    5.5533    0.0000 N   0  0  0  0  0  0  0  0  0  0  0  0
    9.6600    6.2066    0.0000 O   0  0  0  0  0  0  0  0  0  0  0  0
    7.2333    6.2066    0.0000 O   0  0  0  0  0  0  0  0  0  0  0  0
  1  2  2  0
  2  3  1  0
  3  4  2  0
  4  5  1  0
  5  6  2  0
  1  6  1  0
  4  7  1  0
  7  8  1  0
  8  9  2  0
  5  9  1  0
  8 10  1  0
 10 11  2  0
 11 12  1  0
 12 13  2  0
  9 13  1  0
  7 14  2  0
  2 15  1  0
 15 16  1  0
 15 17  2  0
 11 18  1  0
 18 19  1  0
 18 20  2  0
 13 21  1  0
 21 22  1  0
 21 23  2  0
M  CHG  6  15   1  16  -1  18   1  19  -1  21   1  22  -1
M  END
>  <Compound Name>  (28) 
2,4,7-trinitro-9-fluorenone

>  <Formula>  (28) 
C13H5N3O7

>  <LogP>  (28) 
2.42

>  <LUMO>  (28) 
-2.837

>  <MOL_ID>  (28) 
29

>  <Activity>  (28) 
3.41

$$$$
4-nitrobenz[k]acephenanthrylene
     RDKit          2D

 23 27  0  0  0  0  0  0  0  0999 V2000
    3.4981    6.2965    0.0000 C   0  0  0  0  0  0  0  0  0  0  0  0
    3.4981    4.8973    0.0000 C   0  0  0  0  0  0  0  0  0  0  0  0
    4.7107    4.1977    0.0000 C   0  0  0  0  0  0  0  0  0  0  0  0
    5.9234    4.8973    0.0000 C   0  0  0  0  0  0  0  0  0  0  0  0
    5.9234    6.2965    0.0000 C   0  0  0  0  0  0  0  0  0  0  0  0
    4.7107    6.9961    0.0000 C   0  0  0  0  0  0  0  0  0  0  0  0
    2.2854    6.9961    0.0000 C   0  0  0  0  0  0  0  0  0  0  0  0
    1.0727    6.2965    0.0000 C   0  0  0  0  0  0  0  0  0  0  0  0
    1.0727    4.8973    0.0000 C   0  0  0  0  0  0  0  0  0  0  0  0
    2.2854    4.1977    0.0000 C   0  0  0  0  0  0  0  0  0  0  0  0
    4.7107    8.3953    0.0000 C   0  0  0  0  0  0  0  0  0  0  0  0
    2.2854    8.3953    0.0000 C   0  0  0  0  0  0  0  0  0  0  0  0
    7.1361    2.7984    0.0000 C   0  0  0  0  0  0  0  0  0  0  0  0
    5.9234    2.0988    0.0000 C   0  0  0  0  0  0  0  0  0  0  0  0
    5.9234    0.6996    0.0000 C   0  0  0  0  0  0  0  0  0  0  0  0
    7.1361    0.0000    0.0000 C   0  0  0  0  0  0  0  0  0  0  0  0
    8.3487    0.6996    0.0000 C   0  0  0  0  0  0  0  0  0  0  0  0
    8.3487    2.0988    0.0000 C   0  0  0  0  0  0  0  0  0  0  0  0
    7.1361    4.1977    0.0000 C   0  0  0  0  0  0  0  0  0  0  0  0
    4.7107    2.7984    0.0000 C   0  0  0  0  0  0  0  0  0  0  0  0
    1.3059    9.3748    0.0000 N   0  0  0  0  0  0  0  0  0  0  0  0
    1.6791   10.7274    0.0000 O   0  0  0  0  0  0  0  0  0  0  0  0
    0.0000    9.0017    0.0000 O   0  0  0  0  0  0  0  0  0  0  0  0
  1  2  1  0
  2  3  2  0
  3  4  1  0
  4  5  2  0
  5  6  1  0
  1  6  2  0
  1  7  1  0
  7  8  2  0
  8  9  1  0
  9 10  2  0
  2 10  1  0
  6 11  1  0
  7 12  1  0
 11 12  2  0
 13 14  1  0
 14 15  1  0
 15 16  2  0
 16 17  1  0
 17 18  2  0
 13 18  1  0
 13 19  2  0
  4 19  1  0
  3 20  1  0
 14 20  2  0
 12 21  1  0
 21 22  1  0
 21 23  2  0
M  CHG  2  21   1  22  -1
M  END
>  <Compound Name>  (29) 
4-nitrobenz[k]acephenanthrylene

>  <Formula>  (29) 
C20H11NO2

>  <LogP>  (29) 
5.07

>  <LUMO>  (29) 
-2.005

>  <MOL_ID>  (29) 
30

>  <Activity>  (29) 
0.67

$$$$
1,2-dinitrofluoranthene
     RDKit          2D

 22 25  0  0  0  0  0  0  0  0999 V2000
    2.9867    8.0267    0.0000 C   0  0  0  0  0  0  0  0  0  0  0  0
    1.5867    8.0267    0.0000 C   0  0  0  0  0  0  0  0  0  0  0  0
    0.8867    6.8133    0.0000 C   0  0  0  0  0  0  0  0  0  0  0  0
    1.5867    5.5533    0.0000 C   0  0  0  0  0  0  0  0  0  0  0  0
    2.9867    5.5533    0.0000 C   0  0  0  0  0  0  0  0  0  0  0  0
    3.6867    6.8133    0.0000 C   0  0  0  0  0  0  0  0  0  0  0  0
    1.1667    4.2000    0.0000 C   0  0  0  0  0  0  0  0  0  0  0  0
    2.2867    3.3600    0.0000 C   0  0  0  0  0  0  0  0  0  0  0  0
    3.4067    4.1533    0.0000 C   0  0  0  0  0  0  0  0  0  0  0  0
    2.2867    2.1000    0.0000 C   0  0  0  0  0  0  0  0  0  0  0  0
    1.1667    1.4000    0.0000 C   0  0  0  0  0  0  0  0  0  0  0  0
   -0.0000    3.5000    0.0000 C   0  0  0  0  0  0  0  0  0  0  0  0
   -0.0000    2.1000    0.0000 C   0  0  0  0  0  0  0  0  0  0  0  0
    3.4067    1.4933    0.0000 C   0  0  0  0  0  0  0  0  0  0  0  0
    4.5267    2.1000    0.0000 C   0  0  0  0  0  0  0  0  0  0  0  0
    4.5267    3.3600    0.0000 C   0  0  0  0  0  0  0  0  0  0  0  0
    5.7867    4.0600    0.0000 N   0  0  0  0  0  0  0  0  0  0  0  0
    6.9067    3.3600    0.0000 O   0  0  0  0  0  0  0  0  0  0  0  0
    5.7867    5.4600    0.0000 O   0  0  0  0  0  0  0  0  0  0  0  0
    5.7867    1.4000    0.0000 N   0  0  0  0  0  0  0  0  0  0  0  0
    5.7867   -0.0000    0.0000 O   0  0  0  0  0  0  0  0  0  0  0  0
    6.9067    2.1000    0.0000 O   0  0  0  0  0  0  0  0  0  0  0  0
  1  2  2  0
  2  3  1  0
  3  4  2  0
  4  5  1  0
  5  6  2  0
  1  6  1  0
  4  7  1  0
  7  8  1  0
  8  9  2  0
  5  9  1  0
 10 11  1  0
  8 10  1  0
  7 12  2  0
 12 13  1  0
 11 13  2  0
 10 14  2  0
 14 15  1  0
 15 16  2  0
  9 16  1  0
 16 17  1  0
 17 18  1  0
 17 19  2  0
 15 20  1  0
 20 21  1  0
 20 22  2  0
M  CHG  4  17   1  18  -1  20   1  21  -1
M  END
>  <Compound Name>  (30) 
1,2-dinitrofluoranthene

>  <Formula>  (30) 
C16H8N2O4

>  <LogP>  (30) 
4.44

>  <LUMO>  (30) 
-2.055

>  <MOL_ID>  (30) 
31

>  <Activity>  (30) 
3.11

$$$$
2,4,3',4'-tetranitrobiphenyl
     RDKit          2D

 24 25  0  0  0  0  0  0  0  0999 V2000
    2.7518    4.8507    0.0000 C   0  0  0  0  0  0  0  0  0  0  0  0
    2.0522    3.6380    0.0000 C   0  0  0  0  0  0  0  0  0  0  0  0
    2.7518    2.4253    0.0000 C   0  0  0  0  0  0  0  0  0  0  0  0
    4.1510    2.4253    0.0000 C   0  0  0  0  0  0  0  0  0  0  0  0
    4.8507    3.6380    0.0000 C   0  0  0  0  0  0  0  0  0  0  0  0
    4.1510    4.8507    0.0000 C   0  0  0  0  0  0  0  0  0  0  0  0
    6.2499    3.6380    0.0000 C   0  0  0  0  0  0  0  0  0  0  0  0
    6.9495    2.4253    0.0000 C   0  0  0  0  0  0  0  0  0  0  0  0
    8.3487    2.4253    0.0000 C   0  0  0  0  0  0  0  0  0  0  0  0
    9.0484    3.6380    0.0000 C   0  0  0  0  0  0  0  0  0  0  0  0
    8.3487    4.8507    0.0000 C   0  0  0  0  0  0  0  0  0  0  0  0
    6.9495    4.8507    0.0000 C   0  0  0  0  0  0  0  0  0  0  0  0
    6.2499    6.0633    0.0000 N   0  0  0  0  0  0  0  0  0  0  0  0
    6.9495    7.2294    0.0000 O   0  0  0  0  0  0  0  0  0  0  0  0
    4.8507    6.0633    0.0000 O   0  0  0  0  0  0  0  0  0  0  0  0
   10.4476    3.6380    0.0000 N   0  0  0  0  0  0  0  0  0  0  0  0
   11.1472    2.4253    0.0000 O   0  0  0  0  0  0  0  0  0  0  0  0
   11.1472    4.8507    0.0000 O   0  0  0  0  0  0  0  0  0  0  0  0
    2.0522    1.2127    0.0000 N   0  0  0  0  0  0  0  0  0  0  0  0
    0.6530    1.2127    0.0000 O   0  0  0  0  0  0  0  0  0  0  0  0
    2.7518    0.0000    0.0000 O   0  0  0  0  0  0  0  0  0  0  0  0
    0.6530    3.6380    0.0000 N   0  0  0  0  0  0  0  0  0  0  0  0
   -0.0000    4.8507    0.0000 O   0  0  0  0  0  0  0  0  0  0  0  0
   -0.0000    2.4253    0.0000 O   0  0  0  0  0  0  0  0  0  0  0  0
  1  2  2  0
  2  3  1  0
  3  4  2  0
  4  5  1  0
  5  6  2  0
  1  6  1  0
  5  7  1  0
  7  8  2  0
  8  9  1  0
  9 10  2  0
 10 11  1  0
 11 12  2  0
  7 12  1  0
 12 13  1  0
 13 14  1  0
 13 15  2  0
 10 16  1  0
 16 17  1  0
 16 18  2  0
  3 19  1  0
 19 20  1  0
 19 21  2  0
  2 22  1  0
 22 23  1  0
 22 24  2  0
M  CHG  8  13   1  14  -1  16   1  17  -1  19   1  20  -1  22   1  23  -1
M  END
>  <Compound Name>  (31) 
2,4,3',4'-tetranitrobiphenyl

>  <Formula>  (31) 
C12H6N4O8

>  <LogP>  (31) 
3

>  <LUMO>  (31) 
-2.562

>  <MOL_ID>  (31) 
32

>  <Activity>  (31) 
1.54

$$$$
2-[(trifluoroacetyl)amino]-7-nitrofluorene
     RDKit          2D

 23 25  0  0  0  0  0  0  0  0999 V2000
    2.3333    3.5000    0.0000 C   0  0  0  0  0  0  0  0  0  0  0  0
    2.3333    2.1000    0.0000 C   0  0  0  0  0  0  0  0  0  0  0  0
    3.5467    1.4000    0.0000 C   0  0  0  0  0  0  0  0  0  0  0  0
    4.7600    2.1000    0.0000 C   0  0  0  0  0  0  0  0  0  0  0  0
    4.7600    3.5000    0.0000 C   0  0  0  0  0  0  0  0  0  0  0  0
    3.5467    4.1067    0.0000 C   0  0  0  0  0  0  0  0  0  0  0  0
    5.9733    1.4000    0.0000 C   0  0  0  0  0  0  0  0  0  0  0  0
    7.1867    2.1000    0.0000 C   0  0  0  0  0  0  0  0  0  0  0  0
    7.1867    3.5000    0.0000 C   0  0  0  0  0  0  0  0  0  0  0  0
    8.4000    1.4000    0.0000 C   0  0  0  0  0  0  0  0  0  0  0  0
    9.6133    2.1000    0.0000 C   0  0  0  0  0  0  0  0  0  0  0  0
    9.6133    3.5000    0.0000 C   0  0  0  0  0  0  0  0  0  0  0  0
    8.4000    4.1067    0.0000 C   0  0  0  0  0  0  0  0  0  0  0  0
    1.1200    1.4000    0.0000 N   0  0  0  0  0  0  0  0  0  0  0  0
   -0.0000    2.1000    0.0000 O   0  0  0  0  0  0  0  0  0  0  0  0
    1.1200   -0.0000    0.0000 O   0  0  0  0  0  0  0  0  0  0  0  0
   10.8267    1.4000    0.0000 N   0  0  0  0  0  2  0  0  0  0  0  0
   12.0400    2.1000    0.0000 C   0  0  0  0  0  0  0  0  0  0  0  0
   13.2533    1.4000    0.0000 O   0  0  0  0  0  0  0  0  0  0  0  0
   12.0400    3.5000    0.0000 C   0  0  0  0  0  0  0  0  0  0  0  0
   10.6400    3.5000    0.0000 F   0  0  0  0  0  0  0  0  0  0  0  0
   13.4400    3.5000    0.0000 F   0  0  0  0  0  0  0  0  0  0  0  0
   12.0400    4.9000    0.0000 F   0  0  0  0  0  0  0  0  0  0  0  0
  1  2  2  0
  2  3  1  0
  3  4  2  0
  4  5  1  0
  5  6  2  0
  1  6  1  0
  4  7  1  0
  7  8  1  0
  8  9  2  0
  5  9  1  0
  8 10  1  0
 10 11  2  0
 11 12  1  0
 12 13  2  0
  9 13  1  0
  2 14  1  0
 14 15  1  0
 14 16  2  0
 11 17  1  0
 17 18  1  0
 18 19  2  0
 18 20  1  0
 20 21  1  0
 20 22  1  0
 20 23  1  0
M  CHG  2  14   1  15  -1
M  RAD  1  17   2
M  END
>  <Compound Name>  (32) 
2-[(trifluoroacetyl)amino]-7-nitrofluorene

>  <Formula>  (32) 
C15H9F3N2O3

>  <LogP>  (32) 
4.23

>  <LUMO>  (32) 
-1.591

>  <MOL_ID>  (32) 
33

>  <Activity>  (32) 
2.81

$$$$
2-nitronaphthalene
     RDKit          2D

 13 14  0  0  0  0  0  0  0  0999 V2000
    1.1660    2.7985    0.0000 C   0  0  0  0  0  0  0  0  0  0  0  0
   -0.0000    2.0988    0.0000 C   0  0  0  0  0  0  0  0  0  0  0  0
   -0.0000    0.6996    0.0000 C   0  0  0  0  0  0  0  0  0  0  0  0
    1.1660   -0.0000    0.0000 C   0  0  0  0  0  0  0  0  0  0  0  0
    2.3787    0.6996    0.0000 C   0  0  0  0  0  0  0  0  0  0  0  0
    2.3787    2.0988    0.0000 C   0  0  0  0  0  0  0  0  0  0  0  0
    3.5914   -0.0000    0.0000 C   0  0  0  0  0  0  0  0  0  0  0  0
    4.8040    0.6996    0.0000 C   0  0  0  0  0  0  0  0  0  0  0  0
    4.8040    2.0988    0.0000 C   0  0  0  0  0  0  0  0  0  0  0  0
    3.5914    2.7985    0.0000 C   0  0  0  0  0  0  0  0  0  0  0  0
    6.0167    2.7985    0.0000 N   0  0  0  0  0  0  0  0  0  0  0  0
    7.2294    2.0988    0.0000 O   0  0  0  0  0  0  0  0  0  0  0  0
    6.0167    4.1977    0.0000 O   0  0  0  0  0  0  0  0  0  0  0  0
  1  2  2  0
  2  3  1  0
  3  4  2  0
  4  5  1  0
  5  6  2  0
  1  6  1  0
  5  7  1  0
  7  8  2  0
  8  9  1  0
  9 10  2  0
  6 10  1  0
  9 11  1  0
 11 12  1  0
 11 13  2  0
M  CHG  2  11   1  12  -1
M  END
>  <Compound Name>  (33) 
2-nitronaphthalene

>  <Formula>  (33) 
C10H7NO2

>  <LogP>  (33) 
3.24

>  <LUMO>  (33) 
-1.451

>  <MOL_ID>  (33) 
34

>  <Activity>  (33) 
-0.3

$$$$
2-amino-7-nitrofluorene
     RDKit          2D

 17 19  0  0  0  0  0  0  0  0999 V2000
    2.2867    3.5000    0.0000 C   0  0  0  0  0  0  0  0  0  0  0  0
    2.2867    2.1000    0.0000 C   0  0  0  0  0  0  0  0  0  0  0  0
    3.5467    1.4000    0.0000 C   0  0  0  0  0  0  0  0  0  0  0  0
    4.7600    2.1000    0.0000 C   0  0  0  0  0  0  0  0  0  0  0  0
    4.7600    3.5000    0.0000 C   0  0  0  0  0  0  0  0  0  0  0  0
    3.5467    4.1067    0.0000 C   0  0  0  0  0  0  0  0  0  0  0  0
    5.9267    1.4000    0.0000 C   0  0  0  0  0  0  0  0  0  0  0  0
    7.1867    2.1000    0.0000 C   0  0  0  0  0  0  0  0  0  0  0  0
    7.1867    3.5000    0.0000 C   0  0  0  0  0  0  0  0  0  0  0  0
    8.3533    1.4000    0.0000 C   0  0  0  0  0  0  0  0  0  0  0  0
    9.5667    2.1000    0.0000 C   0  0  0  0  0  0  0  0  0  0  0  0
    9.5667    3.5000    0.0000 C   0  0  0  0  0  0  0  0  0  0  0  0
    8.3533    4.1067    0.0000 C   0  0  0  0  0  0  0  0  0  0  0  0
    1.1200    1.4000    0.0000 N   0  0  0  0  0  0  0  0  0  0  0  0
   -0.0000    2.1000    0.0000 O   0  0  0  0  0  0  0  0  0  0  0  0
    1.1200   -0.0000    0.0000 O   0  0  0  0  0  0  0  0  0  0  0  0
   10.8267    1.4000    0.0000 N   0  0  0  0  0  0  0  0  0  0  0  0
  1  2  2  0
  2  3  1  0
  3  4  2  0
  4  5  1  0
  5  6  2  0
  1  6  1  0
  4  7  1  0
  7  8  1  0
  8  9  2  0
  5  9  1  0
  8 10  1  0
 10 11  2  0
 11 12  1  0
 12 13  2  0
  9 13  1  0
  2 14  1  0
 14 15  1  0
 14 16  2  0
 11 17  1  0
M  CHG  2  14   1  15  -1
M  END
>  <Compound Name>  (34) 
2-amino-7-nitrofluorene

>  <Formula>  (34) 
C13H10N2O2

>  <LogP>  (34) 
3.06

>  <LUMO>  (34) 
-1.176

>  <MOL_ID>  (34) 
35

>  <Activity>  (34) 
1.56

$$$$
3-methyl-2-nitronaphthalene
     RDKit          2D

 14 15  0  0  0  0  0  0  0  0999 V2000
    1.1194    2.7984    0.0000 C   0  0  0  0  0  0  0  0  0  0  0  0
    0.0000    2.0988    0.0000 C   0  0  0  0  0  0  0  0  0  0  0  0
    0.0000    0.6996    0.0000 C   0  0  0  0  0  0  0  0  0  0  0  0
    1.1194    0.0000    0.0000 C   0  0  0  0  0  0  0  0  0  0  0  0
    2.3320    0.6996    0.0000 C   0  0  0  0  0  0  0  0  0  0  0  0
    2.3320    2.0988    0.0000 C   0  0  0  0  0  0  0  0  0  0  0  0
    3.5447    0.0000    0.0000 C   0  0  0  0  0  0  0  0  0  0  0  0
    4.7574    0.6996    0.0000 C   0  0  0  0  0  0  0  0  0  0  0  0
    4.7574    2.0988    0.0000 C   0  0  0  0  0  0  0  0  0  0  0  0
    3.5447    2.7984    0.0000 C   0  0  0  0  0  0  0  0  0  0  0  0
    5.9700    2.7984    0.0000 N   0  0  0  0  0  0  0  0  0  0  0  0
    7.1827    2.0988    0.0000 O   0  0  0  0  0  0  0  0  0  0  0  0
    5.9700    4.1510    0.0000 O   0  0  0  0  0  0  0  0  0  0  0  0
    5.9700    0.0000    0.0000 C   0  0  0  0  0  0  0  0  0  0  0  0
  1  2  2  0
  2  3  1  0
  3  4  2  0
  4  5  1  0
  5  6  2  0
  1  6  1  0
  5  7  1  0
  7  8  2  0
  8  9  1  0
  9 10  2  0
  6 10  1  0
  9 11  1  0
 11 12  1  0
 11 13  2  0
  8 14  1  0
M  CHG  2  11   1  12  -1
M  END
>  <Compound Name>  (35) 
3-methyl-2-nitronaphthalene

>  <Formula>  (35) 
C11H9NO2

>  <LogP>  (35) 
3.43

>  <LUMO>  (35) 
-1.24

>  <MOL_ID>  (35) 
36

>  <Activity>  (35) 
0

$$$$
4-nitrostilbene
     RDKit          2D

 17 18  0  0  0  0  0  0  0  0999 V2000
    0.6533    0.9800    0.0000 C   0  0  0  0  0  0  0  0  0  0  0  0
    2.0533    0.9800    0.0000 C   0  0  0  0  0  0  0  0  0  0  0  0
    2.7533    2.1933    0.0000 C   0  0  0  0  0  0  0  0  0  0  0  0
    2.0533    3.4067    0.0000 C   0  0  0  0  0  0  0  0  0  0  0  0
    0.6533    3.4067    0.0000 C   0  0  0  0  0  0  0  0  0  0  0  0
    0.0000    2.1933    0.0000 C   0  0  0  0  0  0  0  0  0  0  0  0
    4.1533    2.1933    0.0000 C   0  0  0  0  0  0  0  0  0  0  0  0
    5.1333    1.2133    0.0000 C   0  0  0  0  0  0  0  0  0  0  0  0
    6.5333    1.2133    0.0000 C   0  0  0  0  0  0  0  0  0  0  0  0
    7.2333    0.0000    0.0000 C   0  0  0  0  0  0  0  0  0  0  0  0
    8.6333    0.0000    0.0000 C   0  0  0  0  0  0  0  0  0  0  0  0
    9.3333    1.2133    0.0000 C   0  0  0  0  0  0  0  0  0  0  0  0
    8.6333    2.4267    0.0000 C   0  0  0  0  0  0  0  0  0  0  0  0
    7.2333    2.4267    0.0000 C   0  0  0  0  0  0  0  0  0  0  0  0
   10.7333    1.2133    0.0000 N   0  0  0  0  0  0  0  0  0  0  0  0
   11.4333    0.0000    0.0000 O   0  0  0  0  0  0  0  0  0  0  0  0
   11.4333    2.4267    0.0000 O   0  0  0  0  0  0  0  0  0  0  0  0
  1  2  2  0
  2  3  1  0
  3  4  2  0
  4  5  1  0
  5  6  2  0
  1  6  1  0
  3  7  1  0
  7  8  2  0
  8  9  1  0
  9 10  2  0
 10 11  1  0
 11 12  2  0
 12 13  1  0
 13 14  2  0
  9 14  1  0
 12 15  1  0
 15 16  1  0
 15 17  2  0
M  CHG  2  15   1  16  -1
M  END
>  <Compound Name>  (36) 
4-nitrostilbene

>  <Formula>  (36) 
C14H11NO2

>  <LogP>  (36) 
4.18

>  <LUMO>  (36) 
-1.428

>  <MOL_ID>  (36) 
37

>  <Activity>  (36) 
0.69

$$$$
4-nitrobiphenyl
     RDKit          2D

 15 16  0  0  0  0  0  0  0  0999 V2000
    0.6533    2.3800    0.0000 C   0  0  0  0  0  0  0  0  0  0  0  0
    0.0000    1.2133    0.0000 C   0  0  0  0  0  0  0  0  0  0  0  0
    0.6533   -0.0000    0.0000 C   0  0  0  0  0  0  0  0  0  0  0  0
    2.0533   -0.0000    0.0000 C   0  0  0  0  0  0  0  0  0  0  0  0
    2.7533    1.2133    0.0000 C   0  0  0  0  0  0  0  0  0  0  0  0
    2.0533    2.3800    0.0000 C   0  0  0  0  0  0  0  0  0  0  0  0
    4.1533    1.2133    0.0000 C   0  0  0  0  0  0  0  0  0  0  0  0
    4.8533   -0.0000    0.0000 C   0  0  0  0  0  0  0  0  0  0  0  0
    6.2533   -0.0000    0.0000 C   0  0  0  0  0  0  0  0  0  0  0  0
    6.9533    1.2133    0.0000 C   0  0  0  0  0  0  0  0  0  0  0  0
    6.2533    2.3800    0.0000 C   0  0  0  0  0  0  0  0  0  0  0  0
    4.8533    2.3800    0.0000 C   0  0  0  0  0  0  0  0  0  0  0  0
    8.3533    1.2133    0.0000 N   0  0  0  0  0  0  0  0  0  0  0  0
    9.0533   -0.0000    0.0000 O   0  0  0  0  0  0  0  0  0  0  0  0
    9.0533    2.3800    0.0000 O   0  0  0  0  0  0  0  0  0  0  0  0
  1  2  2  0
  2  3  1  0
  3  4  2  0
  4  5  1  0
  5  6  2  0
  1  6  1  0
  5  7  1  0
  7  8  2  0
  8  9  1  0
  9 10  2  0
 10 11  1  0
 11 12  2  0
  7 12  1  0
 10 13  1  0
 13 14  1  0
 13 15  2  0
M  CHG  2  13   1  14  -1
M  END
>  <Compound Name>  (37) 
4-nitrobiphenyl

>  <Formula>  (37) 
C12H9NO2

>  <LogP>  (37) 
3.77

>  <LUMO>  (37) 
-1.228

>  <MOL_ID>  (37) 
38

>  <Activity>  (37) 
-0.3

$$$$
6-methoxy-8-nitroquinoline
     RDKit          2D

 15 16  0  0  0  0  0  0  0  0999 V2000
    3.5913    4.8973    0.0000 C   0  0  0  0  0  0  0  0  0  0  0  0
    2.3787    4.1977    0.0000 C   0  0  0  0  0  0  0  0  0  0  0  0
    2.3787    2.7984    0.0000 C   0  0  0  0  0  0  0  0  0  0  0  0
    3.5913    2.0988    0.0000 C   0  0  0  0  0  0  0  0  0  0  0  0
    4.8040    2.7984    0.0000 C   0  0  0  0  0  0  0  0  0  0  0  0
    4.8040    4.1977    0.0000 C   0  0  0  0  0  0  0  0  0  0  0  0
    6.0167    2.0988    0.0000 N   0  0  0  0  0  0  0  0  0  0  0  0
    7.2293    2.7984    0.0000 C   0  0  0  0  0  0  0  0  0  0  0  0
    7.2293    4.1977    0.0000 C   0  0  0  0  0  0  0  0  0  0  0  0
    6.0167    4.8973    0.0000 C   0  0  0  0  0  0  0  0  0  0  0  0
    3.5913    0.6996    0.0000 N   0  0  0  0  0  0  0  0  0  0  0  0
    2.3787    0.0000    0.0000 O   0  0  0  0  0  0  0  0  0  0  0  0
    4.8040    0.0000    0.0000 O   0  0  0  0  0  0  0  0  0  0  0  0
    1.1660    4.8973    0.0000 O   0  0  0  0  0  0  0  0  0  0  0  0
    0.0000    4.1977    0.0000 C   0  0  0  0  0  0  0  0  0  0  0  0
  1  2  2  0
  2  3  1  0
  3  4  2  0
  4  5  1  0
  5  6  2  0
  1  6  1  0
  5  7  1  0
  7  8  2  0
  8  9  1  0
  9 10  2  0
  6 10  1  0
  4 11  1  0
 11 12  1  0
 11 13  2  0
  2 14  1  0
 14 15  1  0
M  CHG  2  11   1  12  -1
M  END
>  <Compound Name>  (38) 
6-methoxy-8-nitroquinoline

>  <Formula>  (38) 
C10H8N2O3

>  <LogP>  (38) 
1.87

>  <LUMO>  (38) 
-1.443

>  <MOL_ID>  (38) 
39

>  <Activity>  (38) 
-1.21

$$$$
1-nitronaphthalene
     RDKit          2D

 13 14  0  0  0  0  0  0  0  0999 V2000
    1.1660    2.7985    0.0000 C   0  0  0  0  0  0  0  0  0  0  0  0
   -0.0000    2.0988    0.0000 C   0  0  0  0  0  0  0  0  0  0  0  0
   -0.0000    0.6996    0.0000 C   0  0  0  0  0  0  0  0  0  0  0  0
    1.1660    0.0000    0.0000 C   0  0  0  0  0  0  0  0  0  0  0  0
    2.3787    0.6996    0.0000 C   0  0  0  0  0  0  0  0  0  0  0  0
    2.3787    2.0988    0.0000 C   0  0  0  0  0  0  0  0  0  0  0  0
    3.5913    0.0000    0.0000 C   0  0  0  0  0  0  0  0  0  0  0  0
    4.8040    0.6996    0.0000 C   0  0  0  0  0  0  0  0  0  0  0  0
    4.8040    2.0988    0.0000 C   0  0  0  0  0  0  0  0  0  0  0  0
    3.5913    2.7985    0.0000 C   0  0  0  0  0  0  0  0  0  0  0  0
    3.5913    4.1977    0.0000 N   0  0  0  0  0  0  0  0  0  0  0  0
    4.8040    4.8973    0.0000 O   0  0  0  0  0  0  0  0  0  0  0  0
    2.3787    4.8973    0.0000 O   0  0  0  0  0  0  0  0  0  0  0  0
  1  2  2  0
  2  3  1  0
  3  4  2  0
  4  5  1  0
  5  6  2  0
  1  6  1  0
  5  7  1  0
  7  8  2  0
  8  9  1  0
  9 10  2  0
  6 10  1  0
 10 11  1  0
 11 12  1  0
 11 13  2  0
M  CHG  2  11   1  12  -1
M  END
>  <Compound Name>  (39) 
1-nitronaphthalene

>  <Formula>  (39) 
C10H7NO2

>  <LogP>  (39) 
3.19

>  <LUMO>  (39) 
-1.266

>  <MOL_ID>  (39) 
40

>  <Activity>  (39) 
-0.61

$$$$
2-bromo-7-nitrofluorene
     RDKit          2D

 17 19  0  0  0  0  0  0  0  0999 V2000
    2.3800    3.5000    0.0000 C   0  0  0  0  0  0  0  0  0  0  0  0
    2.3800    2.1000    0.0000 C   0  0  0  0  0  0  0  0  0  0  0  0
    3.5933    1.4000    0.0000 C   0  0  0  0  0  0  0  0  0  0  0  0
    4.8067    2.1000    0.0000 C   0  0  0  0  0  0  0  0  0  0  0  0
    4.8067    3.5000    0.0000 C   0  0  0  0  0  0  0  0  0  0  0  0
    3.5933    4.1533    0.0000 C   0  0  0  0  0  0  0  0  0  0  0  0
    6.0200    1.4000    0.0000 C   0  0  0  0  0  0  0  0  0  0  0  0
    7.2333    2.1000    0.0000 C   0  0  0  0  0  0  0  0  0  0  0  0
    7.2333    3.5000    0.0000 C   0  0  0  0  0  0  0  0  0  0  0  0
    8.4467    1.4000    0.0000 C   0  0  0  0  0  0  0  0  0  0  0  0
    9.6600    2.1000    0.0000 C   0  0  0  0  0  0  0  0  0  0  0  0
    9.6600    3.5000    0.0000 C   0  0  0  0  0  0  0  0  0  0  0  0
    8.4467    4.1533    0.0000 C   0  0  0  0  0  0  0  0  0  0  0  0
   10.8733    1.4000    0.0000 Br  0  0  0  0  0  0  0  0  0  0  0  0
    1.1667    1.4000    0.0000 N   0  0  0  0  0  0  0  0  0  0  0  0
   -0.0000    2.1000    0.0000 O   0  0  0  0  0  0  0  0  0  0  0  0
    1.1667    0.0000    0.0000 O   0  0  0  0  0  0  0  0  0  0  0  0
  1  2  2  0
  2  3  1  0
  3  4  2  0
  4  5  1  0
  5  6  2  0
  1  6  1  0
  4  7  1  0
  7  8  1  0
  8  9  2  0
  5  9  1  0
  8 10  1  0
 10 11  2  0
 11 12  1  0
 12 13  2  0
  9 13  1  0
 11 14  1  0
  2 15  1  0
 15 16  1  0
 15 17  2  0
M  CHG  2  15   1  16  -1
M  END
>  <Compound Name>  (40) 
2-bromo-7-nitrofluorene

>  <Formula>  (40) 
C13H8BrNO2

>  <LogP>  (40) 
4.83

>  <LUMO>  (40) 
-1.6

>  <MOL_ID>  (40) 
41

>  <Activity>  (40) 
3.06

$$$$
2-methyl-5-nitroindazole
     RDKit          2D

 13 14  0  0  0  0  0  0  0  0999 V2000
    2.3787    2.0988    0.0000 C   0  0  0  0  0  0  0  0  0  0  0  0
    2.3787    0.6996    0.0000 C   0  0  0  0  0  0  0  0  0  0  0  0
    3.5914    0.0000    0.0000 C   0  0  0  0  0  0  0  0  0  0  0  0
    4.8040    0.6996    0.0000 C   0  0  0  0  0  0  0  0  0  0  0  0
    4.8040    2.0988    0.0000 C   0  0  0  0  0  0  0  0  0  0  0  0
    3.5914    2.7985    0.0000 C   0  0  0  0  0  0  0  0  0  0  0  0
    6.1566    0.2798    0.0000 N   0  0  0  0  0  0  0  0  0  0  0  0
    6.9495    1.3992    0.0000 N   0  0  0  0  0  0  0  0  0  0  0  0
    6.1566    2.5186    0.0000 C   0  0  0  0  0  0  0  0  0  0  0  0
    1.1660    2.7985    0.0000 N   0  0  0  0  0  0  0  0  0  0  0  0
    1.1660    4.1510    0.0000 O   0  0  0  0  0  0  0  0  0  0  0  0
    0.0000    2.0988    0.0000 O   0  0  0  0  0  0  0  0  0  0  0  0
    8.3487    1.3992    0.0000 C   0  0  0  0  0  0  0  0  0  0  0  0
  1  2  1  0
  2  3  2  0
  3  4  1  0
  4  5  1  0
  5  6  1  0
  1  6  2  0
  4  7  2  0
  7  8  1  0
  8  9  1  0
  5  9  2  0
  1 10  1  0
 10 11  1  0
 10 12  2  0
  8 13  1  0
M  CHG  2  10   1  11  -1
M  END
>  <Compound Name>  (41) 
2-methyl-5-nitroindazole

>  <Formula>  (41) 
C8H8N3O2

>  <LogP>  (41) 
1.77

>  <LUMO>  (41) 
-1.19

>  <MOL_ID>  (41) 
42

>  <Activity>  (41) 
-1.1

$$$$
2-nitrofluoranthene
     RDKit          2D

 19 22  0  0  0  0  0  0  0  0999 V2000
    2.8772    8.0184    0.0000 C   0  0  0  0  0  0  0  0  0  0  0  0
    1.4622    8.0184    0.0000 C   0  0  0  0  0  0  0  0  0  0  0  0
    0.7547    6.7449    0.0000 C   0  0  0  0  0  0  0  0  0  0  0  0
    1.4622    5.5185    0.0000 C   0  0  0  0  0  0  0  0  0  0  0  0
    2.8772    5.5185    0.0000 C   0  0  0  0  0  0  0  0  0  0  0  0
    3.5847    6.7449    0.0000 C   0  0  0  0  0  0  0  0  0  0  0  0
    1.0377    4.1507    0.0000 C   0  0  0  0  0  0  0  0  0  0  0  0
    2.1697    3.3489    0.0000 C   0  0  0  0  0  0  0  0  0  0  0  0
    3.3017    4.1507    0.0000 C   0  0  0  0  0  0  0  0  0  0  0  0
   -0.0000    3.3960    0.0000 C   0  0  0  0  0  0  0  0  0  0  0  0
   -0.0000    2.1697    0.0000 C   0  0  0  0  0  0  0  0  0  0  0  0
    1.1792    1.4150    0.0000 C   0  0  0  0  0  0  0  0  0  0  0  0
    2.1697    2.0282    0.0000 C   0  0  0  0  0  0  0  0  0  0  0  0
    3.3017    1.4150    0.0000 C   0  0  0  0  0  0  0  0  0  0  0  0
    4.4337    2.1225    0.0000 C   0  0  0  0  0  0  0  0  0  0  0  0
    4.4337    3.3960    0.0000 C   0  0  0  0  0  0  0  0  0  0  0  0
    5.6601    1.4150    0.0000 N   0  0  0  0  0  0  0  0  0  0  0  0
    5.6601    0.0000    0.0000 O   0  0  0  0  0  0  0  0  0  0  0  0
    6.8392    2.1225    0.0000 O   0  0  0  0  0  0  0  0  0  0  0  0
  1  2  2  0
  2  3  1  0
  3  4  2  0
  4  5  1  0
  5  6  2  0
  1  6  1  0
  4  7  1  0
  7  8  1  0
  8  9  2  0
  5  9  1  0
  7 10  2  0
 10 11  1  0
 11 12  2  0
 12 13  1  0
  8 13  1  0
 13 14  2  0
 14 15  1  0
 15 16  2  0
  9 16  1  0
 15 17  1  0
 17 18  1  0
 17 19  2  0
M  CHG  2  17   1  18  -1
M  END
>  <Compound Name>  (42) 
2-nitrofluoranthene

>  <Formula>  (42) 
C16H9NO2

>  <LogP>  (42) 
4.69

>  <LUMO>  (42) 
-1.57

>  <MOL_ID>  (42) 
43

>  <Activity>  (42) 
3.01

$$$$
2-nitro-9,10-dihydrophenanthrene
     RDKit          2D

 17 19  0  0  0  0  0  0  0  0999 V2000
    0.6533    2.4267    0.0000 C   0  0  0  0  0  0  0  0  0  0  0  0
    0.0000    1.2133    0.0000 C   0  0  0  0  0  0  0  0  0  0  0  0
    0.6533   -0.0000    0.0000 C   0  0  0  0  0  0  0  0  0  0  0  0
    2.0533   -0.0000    0.0000 C   0  0  0  0  0  0  0  0  0  0  0  0
    2.7533    1.2133    0.0000 C   0  0  0  0  0  0  0  0  0  0  0  0
    2.0533    2.4267    0.0000 C   0  0  0  0  0  0  0  0  0  0  0  0
    4.1533    1.2133    0.0000 C   0  0  0  0  0  0  0  0  0  0  0  0
    4.8533    2.4267    0.0000 C   0  0  0  0  0  0  0  0  0  0  0  0
    4.1533    3.5933    0.0000 C   0  0  0  0  0  0  0  0  0  0  0  0
    2.7533    3.5933    0.0000 C   0  0  0  0  0  0  0  0  0  0  0  0
    4.8533   -0.0000    0.0000 C   0  0  0  0  0  0  0  0  0  0  0  0
    6.2533   -0.0000    0.0000 C   0  0  0  0  0  0  0  0  0  0  0  0
    7.0000    1.2133    0.0000 C   0  0  0  0  0  0  0  0  0  0  0  0
    6.2533    2.4267    0.0000 C   0  0  0  0  0  0  0  0  0  0  0  0
    8.4000    1.2133    0.0000 N   0  0  0  0  0  0  0  0  0  0  0  0
    9.1000   -0.0000    0.0000 O   0  0  0  0  0  0  0  0  0  0  0  0
    9.1000    2.4267    0.0000 O   0  0  0  0  0  0  0  0  0  0  0  0
  1  2  2  0
  2  3  1  0
  3  4  2  0
  4  5  1  0
  5  6  2  0
  1  6  1  0
  5  7  1  0
  7  8  2  0
  8  9  1  0
  9 10  1  0
  6 10  1  0
  7 11  1  0
 11 12  2  0
 12 13  1  0
 13 14  2  0
  8 14  1  0
 13 15  1  0
 15 16  1  0
 15 17  2  0
M  CHG  2  15   1  16  -1
M  END
>  <Compound Name>  (43) 
2-nitro-9,10-dihydrophenanthrene

>  <Formula>  (43) 
C14H11NO2

>  <LogP>  (43) 
4.53

>  <LUMO>  (43) 
-1.265

>  <MOL_ID>  (43) 
44

>  <Activity>  (43) 
1.99

$$$$
1,4-dinitrobenzene
     RDKit          2D

 12 12  0  0  0  0  0  0  0  0999 V2000
    2.0533    1.2133    0.0000 C   0  0  0  0  0  0  0  0  0  0  0  0
    2.7533   -0.0000    0.0000 C   0  0  0  0  0  0  0  0  0  0  0  0
    4.1533   -0.0000    0.0000 C   0  0  0  0  0  0  0  0  0  0  0  0
    4.8533    1.2133    0.0000 C   0  0  0  0  0  0  0  0  0  0  0  0
    4.1533    2.3800    0.0000 C   0  0  0  0  0  0  0  0  0  0  0  0
    2.7533    2.3800    0.0000 C   0  0  0  0  0  0  0  0  0  0  0  0
    6.2533    1.2133    0.0000 N   0  0  0  0  0  0  0  0  0  0  0  0
    6.9533   -0.0000    0.0000 O   0  0  0  0  0  0  0  0  0  0  0  0
    6.9533    2.3800    0.0000 O   0  0  0  0  0  0  0  0  0  0  0  0
    0.6533    1.2133    0.0000 N   0  0  0  0  0  0  0  0  0  0  0  0
    0.0000    2.3800    0.0000 O   0  0  0  0  0  0  0  0  0  0  0  0
    0.0000   -0.0000    0.0000 O   0  0  0  0  0  0  0  0  0  0  0  0
  1  2  2  0
  2  3  1  0
  3  4  2  0
  4  5  1  0
  5  6  2  0
  1  6  1  0
  4  7  1  0
  7  8  1  0
  7  9  2  0
  1 10  1  0
 10 11  1  0
 10 12  2  0
M  CHG  4   7   1   8  -1  10   1  11  -1
M  END
>  <Compound Name>  (44) 
1,4-dinitrobenzene

>  <Formula>  (44) 
C6H4N2O4

>  <LogP>  (44) 
1.46

>  <LUMO>  (44) 
-2.227

>  <MOL_ID>  (44) 
45

>  <Activity>  (44) 
0.15

$$$$
1-nitro-7,8,9,10-tetrahydrobenzo[a]pyrene
     RDKit          2D

 23 27  0  0  0  0  0  0  0  0999 V2000
   -0.0000    2.0988    0.0000 C   0  0  0  0  0  0  0  0  0  0  0  0
   -0.0000    0.6996    0.0000 C   0  0  0  0  0  0  0  0  0  0  0  0
    1.1660   -0.0000    0.0000 C   0  0  0  0  0  0  0  0  0  0  0  0
    2.3787    0.6996    0.0000 C   0  0  0  0  0  0  0  0  0  0  0  0
    2.3787    2.0988    0.0000 C   0  0  0  0  0  0  0  0  0  0  0  0
    1.1660    2.7984    0.0000 C   0  0  0  0  0  0  0  0  0  0  0  0
    3.5913   -0.0000    0.0000 C   0  0  0  0  0  0  0  0  0  0  0  0
    4.8040    0.6996    0.0000 C   0  0  0  0  0  0  0  0  0  0  0  0
    4.8040    2.0988    0.0000 C   0  0  0  0  0  0  0  0  0  0  0  0
    3.5913    2.7984    0.0000 C   0  0  0  0  0  0  0  0  0  0  0  0
    6.0167   -0.0000    0.0000 C   0  0  0  0  0  0  0  0  0  0  0  0
    7.2293    0.6996    0.0000 C   0  0  0  0  0  0  0  0  0  0  0  0
    7.2293    2.0988    0.0000 C   0  0  0  0  0  0  0  0  0  0  0  0
    6.0167    2.7984    0.0000 C   0  0  0  0  0  0  0  0  0  0  0  0
    6.0167    4.1977    0.0000 C   0  0  0  0  0  0  0  0  0  0  0  0
    4.8040    4.8973    0.0000 C   0  0  0  0  0  0  0  0  0  0  0  0
    3.5913    4.1977    0.0000 C   0  0  0  0  0  0  0  0  0  0  0  0
    8.4420    2.7984    0.0000 C   0  0  0  0  0  0  0  0  0  0  0  0
    8.4420    4.1977    0.0000 C   0  0  0  0  0  0  0  0  0  0  0  0
    7.2293    4.8973    0.0000 C   0  0  0  0  0  0  0  0  0  0  0  0
    7.2293    6.2965    0.0000 N   0  0  0  0  0  0  0  0  0  0  0  0
    8.4420    6.9028    0.0000 O   0  0  0  0  0  0  0  0  0  0  0  0
    6.0167    6.9028    0.0000 O   0  0  0  0  0  0  0  0  0  0  0  0
  1  2  1  0
  2  3  1  0
  3  4  1  0
  4  5  2  0
  5  6  1  0
  1  6  1  0
  4  7  1  0
  7  8  2  0
  8  9  1  0
  9 10  2  0
  5 10  1  0
  8 11  1  0
 11 12  2  0
 12 13  1  0
 13 14  2  0
  9 14  1  0
 14 15  1  0
 15 16  1  0
 16 17  2  0
 10 17  1  0
 13 18  1  0
 18 19  2  0
 19 20  1  0
 15 20  2  0
 20 21  1  0
 21 22  1  0
 21 23  2  0
M  CHG  2  21   1  22  -1
M  END
>  <Compound Name>  (45) 
1-nitro-7,8,9,10-tetrahydrobenzo[a]pyrene

>  <Formula>  (45) 
C20H15NO2

>  <LogP>  (45) 
6.57

>  <LUMO>  (45) 
-1.804

>  <MOL_ID>  (45) 
46

>  <Activity>  (45) 
0.9

$$$$
2,7-dinitro-4,5,9,10-tetrahydropyrene
     RDKit          2D

 22 25  0  0  0  0  0  0  0  0999 V2000
    4.7574    3.4981    0.0000 C   0  0  0  0  0  0  0  0  0  0  0  0
    4.7574    2.0988    0.0000 C   0  0  0  0  0  0  0  0  0  0  0  0
    5.9700    1.3992    0.0000 C   0  0  0  0  0  0  0  0  0  0  0  0
    7.1827    2.0988    0.0000 C   0  0  0  0  0  0  0  0  0  0  0  0
    7.1827    3.4981    0.0000 C   0  0  0  0  0  0  0  0  0  0  0  0
    5.9700    4.1977    0.0000 C   0  0  0  0  0  0  0  0  0  0  0  0
    3.5447    4.1977    0.0000 C   0  0  0  0  0  0  0  0  0  0  0  0
    2.3320    3.4981    0.0000 C   0  0  0  0  0  0  0  0  0  0  0  0
    2.3320    2.0988    0.0000 C   0  0  0  0  0  0  0  0  0  0  0  0
    3.5447    1.3992    0.0000 C   0  0  0  0  0  0  0  0  0  0  0  0
    5.9700    5.5969    0.0000 C   0  0  0  0  0  0  0  0  0  0  0  0
    4.7574    6.2965    0.0000 C   0  0  0  0  0  0  0  0  0  0  0  0
    3.5447    5.5969    0.0000 C   0  0  0  0  0  0  0  0  0  0  0  0
    8.3954    4.1977    0.0000 C   0  0  0  0  0  0  0  0  0  0  0  0
    8.3954    5.5969    0.0000 C   0  0  0  0  0  0  0  0  0  0  0  0
    7.1827    6.2965    0.0000 C   0  0  0  0  0  0  0  0  0  0  0  0
    9.6080    6.2965    0.0000 N   0  0  0  0  0  0  0  0  0  0  0  0
   10.8207    5.5969    0.0000 O   0  0  0  0  0  0  0  0  0  0  0  0
    9.6080    7.6958    0.0000 O   0  0  0  0  0  0  0  0  0  0  0  0
    1.1194    1.3992    0.0000 N   0  0  0  0  0  0  0  0  0  0  0  0
   -0.0000    2.0988    0.0000 O   0  0  0  0  0  0  0  0  0  0  0  0
    1.1194   -0.0000    0.0000 O   0  0  0  0  0  0  0  0  0  0  0  0
  1  2  2  0
  2  3  1  0
  3  4  1  0
  4  5  1  0
  5  6  2  0
  1  6  1  0
  1  7  1  0
  7  8  2  0
  8  9  1  0
  9 10  2  0
  2 10  1  0
  6 11  1  0
 11 12  1  0
 12 13  1  0
  7 13  1  0
  5 14  1  0
 14 15  2  0
 15 16  1  0
 11 16  2  0
 15 17  1  0
 17 18  1  0
 17 19  2  0
  9 20  1  0
 20 21  1  0
 20 22  2  0
M  CHG  4  17   1  18  -1  20   1  21  -1
M  END
>  <Compound Name>  (46) 
2,7-dinitro-4,5,9,10-tetrahydropyrene

>  <Formula>  (46) 
C16H12N2O4

>  <LogP>  (46) 
5.02

>  <LUMO>  (46) 
-1.88

>  <MOL_ID>  (46) 
47

>  <Activity>  (46) 
3.5

$$$$
2-nitroanthracene
     RDKit          2D

 17 19  0  0  0  0  0  0  0  0999 V2000
   -0.0000    2.0988    0.0000 C   0  0  0  0  0  0  0  0  0  0  0  0
   -0.0000    0.6996    0.0000 C   0  0  0  0  0  0  0  0  0  0  0  0
    1.1660   -0.0000    0.0000 C   0  0  0  0  0  0  0  0  0  0  0  0
    2.3787    0.6996    0.0000 C   0  0  0  0  0  0  0  0  0  0  0  0
    2.3787    2.0988    0.0000 C   0  0  0  0  0  0  0  0  0  0  0  0
    1.1660    2.7984    0.0000 C   0  0  0  0  0  0  0  0  0  0  0  0
    3.5913   -0.0000    0.0000 C   0  0  0  0  0  0  0  0  0  0  0  0
    4.8040    0.6996    0.0000 C   0  0  0  0  0  0  0  0  0  0  0  0
    4.8040    2.0988    0.0000 C   0  0  0  0  0  0  0  0  0  0  0  0
    3.5913    2.7984    0.0000 C   0  0  0  0  0  0  0  0  0  0  0  0
    6.0166   -0.0000    0.0000 C   0  0  0  0  0  0  0  0  0  0  0  0
    7.2293    0.6996    0.0000 C   0  0  0  0  0  0  0  0  0  0  0  0
    7.2293    2.0988    0.0000 C   0  0  0  0  0  0  0  0  0  0  0  0
    6.0166    2.7984    0.0000 C   0  0  0  0  0  0  0  0  0  0  0  0
    8.4420    2.7984    0.0000 N   0  0  0  0  0  0  0  0  0  0  0  0
    9.6546    2.0988    0.0000 O   0  0  0  0  0  0  0  0  0  0  0  0
    8.4420    4.1977    0.0000 O   0  0  0  0  0  0  0  0  0  0  0  0
  1  2  2  0
  2  3  1  0
  3  4  2  0
  4  5  1  0
  5  6  2  0
  1  6  1  0
  4  7  1  0
  7  8  2  0
  8  9  1  0
  9 10  2  0
  5 10  1  0
  8 11  1  0
 11 12  2  0
 12 13  1  0
 13 14  2  0
  9 14  1  0
 13 15  1  0
 15 16  1  0
 15 17  2  0
M  CHG  2  15   1  16  -1
M  END
>  <Compound Name>  (47) 
2-nitroanthracene

>  <Formula>  (47) 
C14H9NO2

>  <LogP>  (47) 
4.23

>  <LUMO>  (47) 
-1.616

>  <MOL_ID>  (47) 
48

>  <Activity>  (47) 
2.95

$$$$
2,8-dinitrophenazine
     RDKit          2D

 20 22  0  0  0  0  0  0  0  0999 V2000
    3.5447    2.7984    0.0000 C   0  0  0  0  0  0  0  0  0  0  0  0
    2.3320    2.0988    0.0000 C   0  0  0  0  0  0  0  0  0  0  0  0
    2.3320    0.6996    0.0000 C   0  0  0  0  0  0  0  0  0  0  0  0
    3.5447    0.0000    0.0000 C   0  0  0  0  0  0  0  0  0  0  0  0
    4.7574    0.6996    0.0000 C   0  0  0  0  0  0  0  0  0  0  0  0
    4.7574    2.0988    0.0000 C   0  0  0  0  0  0  0  0  0  0  0  0
    5.9700    0.0000    0.0000 N   0  0  0  0  0  0  0  0  0  0  0  0
    7.1827    0.6996    0.0000 C   0  0  0  0  0  0  0  0  0  0  0  0
    7.1827    2.0988    0.0000 C   0  0  0  0  0  0  0  0  0  0  0  0
    5.9700    2.7984    0.0000 N   0  0  0  0  0  0  0  0  0  0  0  0
    8.3953    0.0000    0.0000 C   0  0  0  0  0  0  0  0  0  0  0  0
    9.6080    0.6996    0.0000 C   0  0  0  0  0  0  0  0  0  0  0  0
    9.6080    2.0988    0.0000 C   0  0  0  0  0  0  0  0  0  0  0  0
    8.3953    2.7984    0.0000 C   0  0  0  0  0  0  0  0  0  0  0  0
   10.8207    2.7984    0.0000 N   0  0  0  0  0  0  0  0  0  0  0  0
   12.0333    2.0988    0.0000 O   0  0  0  0  0  0  0  0  0  0  0  0
   10.8207    4.1977    0.0000 O   0  0  0  0  0  0  0  0  0  0  0  0
    1.1194    2.7984    0.0000 N   0  0  0  0  0  0  0  0  0  0  0  0
    1.1194    4.1977    0.0000 O   0  0  0  0  0  0  0  0  0  0  0  0
    0.0000    2.0988    0.0000 O   0  0  0  0  0  0  0  0  0  0  0  0
  1  2  2  0
  2  3  1  0
  3  4  2  0
  4  5  1  0
  5  6  2  0
  1  6  1  0
  5  7  1  0
  7  8  2  0
  8  9  1  0
  9 10  2  0
  6 10  1  0
  8 11  1  0
 11 12  2  0
 12 13  1  0
 13 14  2  0
  9 14  1  0
 13 15  1  0
 15 16  1  0
 15 17  2  0
  2 18  1  0
 18 19  1  0
 18 20  2  0
M  CHG  4  15   1  16  -1  18   1  19  -1
M  END
>  <Compound Name>  (48) 
2,8-dinitrophenazine

>  <Formula>  (48) 
C12H6N4O4

>  <LogP>  (48) 
2.29

>  <LUMO>  (48) 
-2.808

>  <MOL_ID>  (48) 
49

>  <Activity>  (48) 
2.75

$$$$
1,5-dinitronaphtalene
     RDKit          2D

 16 17  0  0  0  0  0  0  0  0999 V2000
    2.3787    4.1977    0.0000 C   0  0  0  0  0  0  0  0  0  0  0  0
    2.3787    2.7985    0.0000 C   0  0  0  0  0  0  0  0  0  0  0  0
    3.5914    2.0989    0.0000 C   0  0  0  0  0  0  0  0  0  0  0  0
    4.8040    2.7985    0.0000 C   0  0  0  0  0  0  0  0  0  0  0  0
    4.8040    4.1977    0.0000 C   0  0  0  0  0  0  0  0  0  0  0  0
    3.5914    4.8973    0.0000 C   0  0  0  0  0  0  0  0  0  0  0  0
    1.1660    4.8973    0.0000 C   0  0  0  0  0  0  0  0  0  0  0  0
   -0.0000    4.1977    0.0000 C   0  0  0  0  0  0  0  0  0  0  0  0
   -0.0000    2.7985    0.0000 C   0  0  0  0  0  0  0  0  0  0  0  0
    1.1660    2.0989    0.0000 C   0  0  0  0  0  0  0  0  0  0  0  0
    3.5914    6.2965    0.0000 N   0  0  0  0  0  0  0  0  0  0  0  0
    4.8040    6.9962    0.0000 O   0  0  0  0  0  0  0  0  0  0  0  0
    2.3787    6.9962    0.0000 O   0  0  0  0  0  0  0  0  0  0  0  0
    1.1660    0.6996    0.0000 N   0  0  0  0  0  0  0  0  0  0  0  0
   -0.0000    0.0000    0.0000 O   0  0  0  0  0  0  0  0  0  0  0  0
    2.3787    0.0000    0.0000 O   0  0  0  0  0  0  0  0  0  0  0  0
  1  2  1  0
  2  3  2  0
  3  4  1  0
  4  5  2  0
  5  6  1  0
  1  6  2  0
  1  7  1  0
  7  8  2  0
  8  9  1  0
  9 10  2  0
  2 10  1  0
  6 11  1  0
 11 12  1  0
 11 13  2  0
 10 14  1  0
 14 15  1  0
 14 16  2  0
M  CHG  4  11   1  12  -1  14   1  15  -1
M  END
>  <Compound Name>  (49) 
1,5-dinitronaphtalene

>  <Formula>  (49) 
C10H6N2O4

>  <LogP>  (49) 
2.58

>  <LUMO>  (49) 
-1.932

>  <MOL_ID>  (49) 
50

>  <Activity>  (49) 
0.52

$$$$
1,6-dinitro-9,10,11,12-tetrahydrobenzo[e]pyrene
     RDKit          2D

 26 30  0  0  0  0  0  0  0  0999 V2000
    2.3800    7.0000    0.0000 C   0  0  0  0  0  0  0  0  0  0  0  0
    1.1667    6.3000    0.0000 C   0  0  0  0  0  0  0  0  0  0  0  0
    1.1667    4.9000    0.0000 C   0  0  0  0  0  0  0  0  0  0  0  0
    2.3800    4.2000    0.0000 C   0  0  0  0  0  0  0  0  0  0  0  0
    3.5933    4.9000    0.0000 C   0  0  0  0  0  0  0  0  0  0  0  0
    3.5933    6.3000    0.0000 C   0  0  0  0  0  0  0  0  0  0  0  0
    2.3800    8.4000    0.0000 C   0  0  0  0  0  0  0  0  0  0  0  0
    1.1667    9.0533    0.0000 C   0  0  0  0  0  0  0  0  0  0  0  0
    0.0000    8.4000    0.0000 C   0  0  0  0  0  0  0  0  0  0  0  0
    0.0000    7.0000    0.0000 C   0  0  0  0  0  0  0  0  0  0  0  0
    4.8066    4.2000    0.0000 C   0  0  0  0  0  0  0  0  0  0  0  0
    6.0200    4.9000    0.0000 C   0  0  0  0  0  0  0  0  0  0  0  0
    6.0200    6.3000    0.0000 C   0  0  0  0  0  0  0  0  0  0  0  0
    4.8066    7.0000    0.0000 C   0  0  0  0  0  0  0  0  0  0  0  0
    0.0000    4.2000    0.0000 C   0  0  0  0  0  0  0  0  0  0  0  0
    0.0000    2.8000    0.0000 C   0  0  0  0  0  0  0  0  0  0  0  0
    1.1667    2.1000    0.0000 C   0  0  0  0  0  0  0  0  0  0  0  0
    2.3800    2.8000    0.0000 C   0  0  0  0  0  0  0  0  0  0  0  0
    3.5933    2.1000    0.0000 C   0  0  0  0  0  0  0  0  0  0  0  0
    4.8066    2.8000    0.0000 C   0  0  0  0  0  0  0  0  0  0  0  0
    4.8066    8.4000    0.0000 N   0  0  0  0  0  0  0  0  0  0  0  0
    6.0200    9.0533    0.0000 O   0  0  0  0  0  0  0  0  0  0  0  0
    3.5933    9.0533    0.0000 O   0  0  0  0  0  0  0  0  0  0  0  0
    1.1667    0.7000    0.0000 N   0  0  0  0  0  0  0  0  0  0  0  0
    0.0000    0.0000    0.0000 O   0  0  0  0  0  0  0  0  0  0  0  0
    2.3800    0.0000    0.0000 O   0  0  0  0  0  0  0  0  0  0  0  0
  1  2  2  0
  2  3  1  0
  3  4  2  0
  4  5  1  0
  5  6  2  0
  1  6  1  0
  1  7  1  0
  7  8  1  0
  8  9  1  0
  9 10  1  0
  2 10  1  0
  5 11  1  0
 11 12  2  0
 12 13  1  0
 13 14  2  0
  6 14  1  0
  3 15  1  0
 15 16  2  0
 16 17  1  0
 17 18  2  0
  4 18  1  0
 18 19  1  0
 19 20  2  0
 11 20  1  0
 14 21  1  0
 21 22  1  0
 21 23  2  0
 17 24  1  0
 24 25  1  0
 24 26  2  0
M  CHG  4  21   1  22  -1  24   1  25  -1
M  END
>  <Compound Name>  (50) 
1,6-dinitro-9,10,11,12-tetrahydrobenzo[e]pyrene

>  <Formula>  (50) 
C20H14N2O4

>  <LogP>  (50) 
6.01

>  <LUMO>  (50) 
-2.184

>  <MOL_ID>  (50) 
51

>  <Activity>  (50) 
2.41

$$$$
1,3-dinitro-9,10,11,12-tetrahydrobenzo[e]pyrene
     RDKit          2D

 26 30  0  0  0  0  0  0  0  0999 V2000
    2.3800    4.9000    0.0000 C   0  0  0  0  0  0  0  0  0  0  0  0
    1.1667    4.2000    0.0000 C   0  0  0  0  0  0  0  0  0  0  0  0
    1.1667    2.8000    0.0000 C   0  0  0  0  0  0  0  0  0  0  0  0
    2.3800    2.1000    0.0000 C   0  0  0  0  0  0  0  0  0  0  0  0
    3.5467    2.8000    0.0000 C   0  0  0  0  0  0  0  0  0  0  0  0
    3.5467    4.2000    0.0000 C   0  0  0  0  0  0  0  0  0  0  0  0
    2.3800    6.3000    0.0000 C   0  0  0  0  0  0  0  0  0  0  0  0
    1.1667    6.9067    0.0000 C   0  0  0  0  0  0  0  0  0  0  0  0
    0.0000    6.3000    0.0000 C   0  0  0  0  0  0  0  0  0  0  0  0
    0.0000    4.9000    0.0000 C   0  0  0  0  0  0  0  0  0  0  0  0
    4.8067    2.1000    0.0000 C   0  0  0  0  0  0  0  0  0  0  0  0
    6.0200    2.8000    0.0000 C   0  0  0  0  0  0  0  0  0  0  0  0
    6.0200    4.2000    0.0000 C   0  0  0  0  0  0  0  0  0  0  0  0
    4.8067    4.9000    0.0000 C   0  0  0  0  0  0  0  0  0  0  0  0
    0.0000    2.1000    0.0000 C   0  0  0  0  0  0  0  0  0  0  0  0
    0.0000    0.7000    0.0000 C   0  0  0  0  0  0  0  0  0  0  0  0
    1.1667    0.0000    0.0000 C   0  0  0  0  0  0  0  0  0  0  0  0
    2.3800    0.7000    0.0000 C   0  0  0  0  0  0  0  0  0  0  0  0
    3.5467    0.0000    0.0000 C   0  0  0  0  0  0  0  0  0  0  0  0
    4.8067    0.7000    0.0000 C   0  0  0  0  0  0  0  0  0  0  0  0
    4.8067    6.3000    0.0000 N   0  0  0  0  0  0  0  0  0  0  0  0
    6.0200    6.9067    0.0000 O   0  0  0  0  0  0  0  0  0  0  0  0
    3.5467    6.9067    0.0000 O   0  0  0  0  0  0  0  0  0  0  0  0
    7.0000    1.8200    0.0000 N   0  0  0  0  0  0  0  0  0  0  0  0
    6.6267    0.4667    0.0000 O   0  0  0  0  0  0  0  0  0  0  0  0
    8.3067    2.1467    0.0000 O   0  0  0  0  0  0  0  0  0  0  0  0
  1  2  2  0
  2  3  1  0
  3  4  2  0
  4  5  1  0
  5  6  2  0
  1  6  1  0
  1  7  1  0
  7  8  1  0
  8  9  1  0
  9 10  1  0
  2 10  1  0
  5 11  1  0
 11 12  2  0
 12 13  1  0
 13 14  2  0
  6 14  1  0
  3 15  1  0
 15 16  2  0
 16 17  1  0
 17 18  2  0
  4 18  1  0
 18 19  1  0
 19 20  2  0
 11 20  1  0
 14 21  1  0
 21 22  1  0
 21 23  2  0
 12 24  1  0
 24 25  1  0
 24 26  2  0
M  CHG  4  21   1  22  -1  24   1  25  -1
M  END
>  <Compound Name>  (51) 
1,3-dinitro-9,10,11,12-tetrahydrobenzo[e]pyrene

>  <Formula>  (51) 
C20H14N2O4

>  <LogP>  (51) 
6.01

>  <LUMO>  (51) 
-2.189

>  <MOL_ID>  (51) 
52

>  <Activity>  (51) 
2.41

$$$$
2,7-dinitrofluorene
     RDKit          2D

 19 21  0  0  0  0  0  0  0  0999 V2000
    2.3800    3.5000    0.0000 C   0  0  0  0  0  0  0  0  0  0  0  0
    2.3800    2.1000    0.0000 C   0  0  0  0  0  0  0  0  0  0  0  0
    3.5933    1.4000    0.0000 C   0  0  0  0  0  0  0  0  0  0  0  0
    4.8067    2.1000    0.0000 C   0  0  0  0  0  0  0  0  0  0  0  0
    4.8067    3.5000    0.0000 C   0  0  0  0  0  0  0  0  0  0  0  0
    3.5933    4.1533    0.0000 C   0  0  0  0  0  0  0  0  0  0  0  0
    6.0200    1.4000    0.0000 C   0  0  0  0  0  0  0  0  0  0  0  0
    7.2333    2.1000    0.0000 C   0  0  0  0  0  0  0  0  0  0  0  0
    7.2333    3.5000    0.0000 C   0  0  0  0  0  0  0  0  0  0  0  0
    8.4467    1.4000    0.0000 C   0  0  0  0  0  0  0  0  0  0  0  0
    9.6600    2.1000    0.0000 C   0  0  0  0  0  0  0  0  0  0  0  0
    9.6600    3.5000    0.0000 C   0  0  0  0  0  0  0  0  0  0  0  0
    8.4467    4.1533    0.0000 C   0  0  0  0  0  0  0  0  0  0  0  0
   10.8734    1.4000    0.0000 N   0  0  0  0  0  0  0  0  0  0  0  0
   10.8734   -0.0000    0.0000 O   0  0  0  0  0  0  0  0  0  0  0  0
   12.0867    2.1000    0.0000 O   0  0  0  0  0  0  0  0  0  0  0  0
    1.1667    1.4000    0.0000 N   0  0  0  0  0  0  0  0  0  0  0  0
    0.0000    2.1000    0.0000 O   0  0  0  0  0  0  0  0  0  0  0  0
    1.1667   -0.0000    0.0000 O   0  0  0  0  0  0  0  0  0  0  0  0
  1  2  2  0
  2  3  1  0
  3  4  2  0
  4  5  1  0
  5  6  2  0
  1  6  1  0
  4  7  1  0
  7  8  1  0
  8  9  2  0
  5  9  1  0
  8 10  1  0
 10 11  2  0
 11 12  1  0
 12 13  2  0
  9 13  1  0
 11 14  1  0
 14 15  1  0
 14 16  2  0
  2 17  1  0
 17 18  1  0
 17 19  2  0
M  CHG  4  14   1  15  -1  17   1  18  -1
M  END
>  <Compound Name>  (52) 
2,7-dinitrofluorene

>  <Formula>  (52) 
C13H8N2O4

>  <LogP>  (52) 
3.35

>  <LUMO>  (52) 
-2.155

>  <MOL_ID>  (52) 
53

>  <Activity>  (52) 
3.22

$$$$
7-nitro-2,3-dichlorodibenzo-1,4-dioxin
     RDKit          2D

 19 21  0  0  0  0  0  0  0  0999 V2000
    2.3800    3.5000    0.0000 C   0  0  0  0  0  0  0  0  0  0  0  0
    2.3800    2.1000    0.0000 C   0  0  0  0  0  0  0  0  0  0  0  0
    3.5933    1.4000    0.0000 C   0  0  0  0  0  0  0  0  0  0  0  0
    4.8067    2.1000    0.0000 C   0  0  0  0  0  0  0  0  0  0  0  0
    4.8067    3.5000    0.0000 C   0  0  0  0  0  0  0  0  0  0  0  0
    3.5933    4.1533    0.0000 C   0  0  0  0  0  0  0  0  0  0  0  0
    6.0200    1.4000    0.0000 O   0  0  0  0  0  0  0  0  0  0  0  0
    7.2333    2.1000    0.0000 C   0  0  0  0  0  0  0  0  0  0  0  0
    7.2333    3.5000    0.0000 C   0  0  0  0  0  0  0  0  0  0  0  0
    6.0200    4.1533    0.0000 O   0  0  0  0  0  0  0  0  0  0  0  0
    8.4467    1.4000    0.0000 C   0  0  0  0  0  0  0  0  0  0  0  0
    9.6600    2.1000    0.0000 C   0  0  0  0  0  0  0  0  0  0  0  0
    9.6600    3.5000    0.0000 C   0  0  0  0  0  0  0  0  0  0  0  0
    8.4467    4.1533    0.0000 C   0  0  0  0  0  0  0  0  0  0  0  0
   10.8733    4.1533    0.0000 Cl  0  0  0  0  0  0  0  0  0  0  0  0
   10.8733    1.4000    0.0000 Cl  0  0  0  0  0  0  0  0  0  0  0  0
    1.1667    1.4000    0.0000 N   0  0  0  0  0  0  0  0  0  0  0  0
   -0.0000    2.1000    0.0000 O   0  0  0  0  0  0  0  0  0  0  0  0
    1.1667    0.0000    0.0000 O   0  0  0  0  0  0  0  0  0  0  0  0
  1  2  2  0
  2  3  1  0
  3  4  2  0
  4  5  1  0
  5  6  2  0
  1  6  1  0
  4  7  1  0
  7  8  1  0
  8  9  2  0
  9 10  1  0
  5 10  1  0
  8 11  1  0
 11 12  2  0
 12 13  1  0
 13 14  2  0
  9 14  1  0
 13 15  1  0
 12 16  1  0
  2 17  1  0
 17 18  1  0
 17 19  2  0
M  CHG  2  17   1  18  -1
M  END
>  <Compound Name>  (53) 
7-nitro-2,3-dichlorodibenzo-1,4-dioxin

>  <Formula>  (53) 
C12H5Cl2NO4

>  <LogP>  (53) 
6.24

>  <LUMO>  (53) 
-1.464

>  <MOL_ID>  (53) 
54

>  <Activity>  (53) 
1.73

$$$$
1-methyl-2-nitronaphthalene
     RDKit          2D

 14 15  0  0  0  0  0  0  0  0999 V2000
    2.3787    2.0988    0.0000 C   0  0  0  0  0  0  0  0  0  0  0  0
    2.3787    0.6996    0.0000 C   0  0  0  0  0  0  0  0  0  0  0  0
    3.5914   -0.0000    0.0000 C   0  0  0  0  0  0  0  0  0  0  0  0
    4.8040    0.6996    0.0000 C   0  0  0  0  0  0  0  0  0  0  0  0
    4.8040    2.0988    0.0000 C   0  0  0  0  0  0  0  0  0  0  0  0
    3.5914    2.7985    0.0000 C   0  0  0  0  0  0  0  0  0  0  0  0
    1.1660    2.7985    0.0000 C   0  0  0  0  0  0  0  0  0  0  0  0
   -0.0000    2.0988    0.0000 C   0  0  0  0  0  0  0  0  0  0  0  0
   -0.0000    0.6996    0.0000 C   0  0  0  0  0  0  0  0  0  0  0  0
    1.1660   -0.0000    0.0000 C   0  0  0  0  0  0  0  0  0  0  0  0
    3.5914    4.1977    0.0000 C   0  0  0  0  0  0  0  0  0  0  0  0
    6.0167    2.7985    0.0000 N   0  0  0  0  0  0  0  0  0  0  0  0
    7.2294    2.0988    0.0000 O   0  0  0  0  0  0  0  0  0  0  0  0
    6.0167    4.1977    0.0000 O   0  0  0  0  0  0  0  0  0  0  0  0
  1  2  1  0
  2  3  2  0
  3  4  1  0
  4  5  2  0
  5  6  1  0
  1  6  2  0
  1  7  1  0
  7  8  2  0
  8  9  1  0
  9 10  2  0
  2 10  1  0
  6 11  1  0
  5 12  1  0
 12 13  1  0
 12 14  2  0
M  CHG  2  12   1  13  -1
M  END
>  <Compound Name>  (54) 
1-methyl-2-nitronaphthalene

>  <Formula>  (54) 
C11H9NO2

>  <LogP>  (54) 
3.43

>  <LUMO>  (54) 
-1.177

>  <MOL_ID>  (54) 
55

>  <Activity>  (54) 
-0.7

$$$$
2-nitrophenazine
     RDKit          2D

 17 19  0  0  0  0  0  0  0  0999 V2000
   -0.0000    2.0988    0.0000 C   0  0  0  0  0  0  0  0  0  0  0  0
   -0.0000    0.6996    0.0000 C   0  0  0  0  0  0  0  0  0  0  0  0
    1.1660    0.0000    0.0000 C   0  0  0  0  0  0  0  0  0  0  0  0
    2.3787    0.6996    0.0000 C   0  0  0  0  0  0  0  0  0  0  0  0
    2.3787    2.0988    0.0000 C   0  0  0  0  0  0  0  0  0  0  0  0
    1.1660    2.7984    0.0000 C   0  0  0  0  0  0  0  0  0  0  0  0
    3.5913    0.0000    0.0000 N   0  0  0  0  0  0  0  0  0  0  0  0
    4.8040    0.6996    0.0000 C   0  0  0  0  0  0  0  0  0  0  0  0
    4.8040    2.0988    0.0000 C   0  0  0  0  0  0  0  0  0  0  0  0
    3.5913    2.7984    0.0000 N   0  0  0  0  0  0  0  0  0  0  0  0
    6.0167    0.0000    0.0000 C   0  0  0  0  0  0  0  0  0  0  0  0
    7.2293    0.6996    0.0000 C   0  0  0  0  0  0  0  0  0  0  0  0
    7.2293    2.0988    0.0000 C   0  0  0  0  0  0  0  0  0  0  0  0
    6.0167    2.7984    0.0000 C   0  0  0  0  0  0  0  0  0  0  0  0
    8.4420    2.7984    0.0000 N   0  0  0  0  0  0  0  0  0  0  0  0
    9.6546    2.0988    0.0000 O   0  0  0  0  0  0  0  0  0  0  0  0
    8.4420    4.1977    0.0000 O   0  0  0  0  0  0  0  0  0  0  0  0
  1  2  2  0
  2  3  1  0
  3  4  2  0
  4  5  1  0
  5  6  2  0
  1  6  1  0
  4  7  1  0
  7  8  2  0
  8  9  1  0
  9 10  2  0
  5 10  1  0
  8 11  1  0
 11 12  2  0
 12 13  1  0
 13 14  2  0
  9 14  1  0
 13 15  1  0
 15 16  1  0
 15 17  2  0
M  CHG  2  15   1  16  -1
M  END
>  <Compound Name>  (55) 
2-nitrophenazine

>  <Formula>  (55) 
C12H7N3O2

>  <LogP>  (55) 
2.52

>  <LUMO>  (55) 
-2.234

>  <MOL_ID>  (55) 
56

>  <Activity>  (55) 
2.06

$$$$
2,4,4'-trinitrobiphenyl
     RDKit          2D

 21 22  0  0  0  0  0  0  0  0999 V2000
    2.7518    2.4253    0.0000 C   0  0  0  0  0  0  0  0  0  0  0  0
    2.0522    1.2127    0.0000 C   0  0  0  0  0  0  0  0  0  0  0  0
    2.7518    0.0000    0.0000 C   0  0  0  0  0  0  0  0  0  0  0  0
    4.1510    0.0000    0.0000 C   0  0  0  0  0  0  0  0  0  0  0  0
    4.8507    1.2127    0.0000 C   0  0  0  0  0  0  0  0  0  0  0  0
    4.1510    2.4253    0.0000 C   0  0  0  0  0  0  0  0  0  0  0  0
    6.2499    1.2127    0.0000 C   0  0  0  0  0  0  0  0  0  0  0  0
    6.9495    0.0000    0.0000 C   0  0  0  0  0  0  0  0  0  0  0  0
    8.3487    0.0000    0.0000 C   0  0  0  0  0  0  0  0  0  0  0  0
    9.0484    1.2127    0.0000 C   0  0  0  0  0  0  0  0  0  0  0  0
    8.3487    2.4253    0.0000 C   0  0  0  0  0  0  0  0  0  0  0  0
    6.9495    2.4253    0.0000 C   0  0  0  0  0  0  0  0  0  0  0  0
    6.2499    3.6380    0.0000 N   0  0  0  0  0  0  0  0  0  0  0  0
    6.9495    4.8507    0.0000 O   0  0  0  0  0  0  0  0  0  0  0  0
    4.8507    3.6380    0.0000 O   0  0  0  0  0  0  0  0  0  0  0  0
   10.4476    1.2127    0.0000 N   0  0  0  0  0  0  0  0  0  0  0  0
   11.1472    0.0000    0.0000 O   0  0  0  0  0  0  0  0  0  0  0  0
   11.1472    2.4253    0.0000 O   0  0  0  0  0  0  0  0  0  0  0  0
    0.6530    1.2127    0.0000 N   0  0  0  0  0  0  0  0  0  0  0  0
   -0.0000    2.4253    0.0000 O   0  0  0  0  0  0  0  0  0  0  0  0
   -0.0000    0.0000    0.0000 O   0  0  0  0  0  0  0  0  0  0  0  0
  1  2  2  0
  2  3  1  0
  3  4  2  0
  4  5  1  0
  5  6  2  0
  1  6  1  0
  5  7  1  0
  7  8  2  0
  8  9  1  0
  9 10  2  0
 10 11  1  0
 11 12  2  0
  7 12  1  0
 12 13  1  0
 13 14  1  0
 13 15  2  0
 10 16  1  0
 16 17  1  0
 16 18  2  0
  2 19  1  0
 19 20  1  0
 19 21  2  0
M  CHG  6  13   1  14  -1  16   1  17  -1  19   1  20  -1
M  END
>  <Compound Name>  (56) 
2,4,4'-trinitrobiphenyl

>  <Formula>  (56) 
C12H7N3O6

>  <LogP>  (56) 
3.26

>  <LUMO>  (56) 
-2.242

>  <MOL_ID>  (56) 
57

>  <Activity>  (56) 
0.66

$$$$
trans-9,10-dihydro-3-nitrobenzo[a]pyrene-9,10-diol
     RDKit          2D

 25 29  0  0  0  0  0  0  0  0999 V2000
    1.1194    2.0988    0.0000 C   0  0  0  0  0  0  0  0  0  0  0  0
    1.1194    0.6996    0.0000 C   0  0  0  0  0  0  0  0  0  0  0  0
    2.3320    0.0000    0.0000 C   0  0  0  0  0  0  0  0  0  0  0  0
    3.5447    0.6996    0.0000 C   0  0  0  0  0  0  0  0  0  0  0  0
    3.5447    2.0988    0.0000 C   0  0  0  0  0  0  0  0  0  0  0  0
    2.3320    2.7985    0.0000 C   0  0  0  0  0  0  0  0  0  0  0  0
    4.7574    0.0000    0.0000 C   0  0  0  0  0  0  0  0  0  0  0  0
    5.9700    0.6996    0.0000 C   0  0  0  0  0  0  0  0  0  0  0  0
    5.9700    2.0988    0.0000 C   0  0  0  0  0  0  0  0  0  0  0  0
    4.7574    2.7985    0.0000 C   0  0  0  0  0  0  0  0  0  0  0  0
    7.1827    0.0000    0.0000 C   0  0  0  0  0  0  0  0  0  0  0  0
    8.3954    0.6996    0.0000 C   0  0  0  0  0  0  0  0  0  0  0  0
    8.3954    2.0988    0.0000 C   0  0  0  0  0  0  0  0  0  0  0  0
    7.1827    2.7985    0.0000 C   0  0  0  0  0  0  0  0  0  0  0  0
    7.1827    4.1977    0.0000 C   0  0  0  0  0  0  0  0  0  0  0  0
    5.9700    4.8973    0.0000 C   0  0  0  0  0  0  0  0  0  0  0  0
    4.7574    4.1977    0.0000 C   0  0  0  0  0  0  0  0  0  0  0  0
    9.6080    2.7985    0.0000 C   0  0  0  0  0  0  0  0  0  0  0  0
    9.6080    4.1977    0.0000 C   0  0  0  0  0  0  0  0  0  0  0  0
    8.3954    4.8973    0.0000 C   0  0  0  0  0  0  0  0  0  0  0  0
    2.3320    4.1977    0.0000 O   0  0  0  0  0  0  0  0  0  0  0  0
    0.0000    2.7985    0.0000 O   0  0  0  0  0  0  0  0  0  0  0  0
   10.8207    2.0988    0.0000 N   0  0  0  0  0  0  0  0  0  0  0  0
   10.8207    0.6996    0.0000 O   0  0  0  0  0  0  0  0  0  0  0  0
   12.0334    2.7985    0.0000 O   0  0  0  0  0  0  0  0  0  0  0  0
  1  2  1  0
  2  3  2  0
  3  4  1  0
  4  5  2  0
  5  6  1  0
  1  6  1  0
  4  7  1  0
  7  8  2  0
  8  9  1  0
  9 10  2  0
  5 10  1  0
  8 11  1  0
 11 12  2  0
 12 13  1  0
 13 14  2  0
  9 14  1  0
 14 15  1  0
 15 16  1  0
 16 17  2  0
 10 17  1  0
 13 18  1  0
 18 19  2  0
 19 20  1  0
 15 20  2  0
  6 21  1  1
  1 22  1  6
 18 23  1  0
 23 24  1  0
 23 25  2  0
M  CHG  2  23   1  24  -1
M  END
>  <Compound Name>  (57) 
trans-9,10-dihydro-3-nitrobenzo[a]pyrene-9,10-diol

>  <Formula>  (57) 
C20H13NO4

>  <LogP>  (57) 
3.01

>  <LUMO>  (57) 
-1.991

>  <MOL_ID>  (57) 
58

>  <Activity>  (57) 
2.8

$$$$
2-nitrobenz[l]aceanthrylene
     RDKit          2D

 23 27  0  0  0  0  0  0  0  0999 V2000
    6.0166    2.0988    0.0000 C   0  0  0  0  0  0  0  0  0  0  0  0
    6.0166    0.6996    0.0000 C   0  0  0  0  0  0  0  0  0  0  0  0
    7.2293   -0.0000    0.0000 C   0  0  0  0  0  0  0  0  0  0  0  0
    8.4420    0.6996    0.0000 C   0  0  0  0  0  0  0  0  0  0  0  0
    8.4420    2.0988    0.0000 C   0  0  0  0  0  0  0  0  0  0  0  0
    7.2293    2.7984    0.0000 C   0  0  0  0  0  0  0  0  0  0  0  0
    4.8040    2.7984    0.0000 C   0  0  0  0  0  0  0  0  0  0  0  0
    3.5913    2.0988    0.0000 C   0  0  0  0  0  0  0  0  0  0  0  0
    3.5913    0.6996    0.0000 C   0  0  0  0  0  0  0  0  0  0  0  0
    4.8040   -0.0000    0.0000 C   0  0  0  0  0  0  0  0  0  0  0  0
    7.2293    4.1977    0.0000 C   0  0  0  0  0  0  0  0  0  0  0  0
    4.8040    4.1977    0.0000 C   0  0  0  0  0  0  0  0  0  0  0  0
    2.3787    2.7984    0.0000 C   0  0  0  0  0  0  0  0  0  0  0  0
    1.1660    2.0988    0.0000 C   0  0  0  0  0  0  0  0  0  0  0  0
    1.1660    0.6996    0.0000 C   0  0  0  0  0  0  0  0  0  0  0  0
    2.3787   -0.0000    0.0000 C   0  0  0  0  0  0  0  0  0  0  0  0
    2.3787    4.1977    0.0000 C   0  0  0  0  0  0  0  0  0  0  0  0
    1.1660    4.8973    0.0000 C   0  0  0  0  0  0  0  0  0  0  0  0
   -0.0000    4.1977    0.0000 C   0  0  0  0  0  0  0  0  0  0  0  0
   -0.0000    2.7984    0.0000 C   0  0  0  0  0  0  0  0  0  0  0  0
    8.4420    4.8973    0.0000 N   0  0  0  0  0  0  0  0  0  0  0  0
    9.6546    4.1977    0.0000 O   0  0  0  0  0  0  0  0  0  0  0  0
    8.4420    6.2965    0.0000 O   0  0  0  0  0  0  0  0  0  0  0  0
  1  2  1  0
  2  3  2  0
  3  4  1  0
  4  5  2  0
  5  6  1  0
  1  6  2  0
  1  7  1  0
  7  8  2  0
  8  9  1  0
  9 10  2  0
  2 10  1  0
  6 11  1  0
  7 12  1  0
 11 12  2  0
  8 13  1  0
 13 14  2  0
 14 15  1  0
 15 16  2  0
  9 16  1  0
 13 17  1  0
 17 18  2  0
 18 19  1  0
 19 20  2  0
 14 20  1  0
 11 21  1  0
 21 22  1  0
 21 23  2  0
M  CHG  2  21   1  22  -1
M  END
>  <Compound Name>  (58) 
2-nitrobenz[l]aceanthrylene

>  <Formula>  (58) 
C20H11NO2

>  <LogP>  (58) 
5.07

>  <LUMO>  (58) 
-2.14

>  <MOL_ID>  (58) 
59

>  <Activity>  (58) 
0.26

$$$$
1,3,8-trinitronaphthalene
     RDKit          2D

 19 20  0  0  0  0  0  0  0  0999 V2000
    2.3800    3.5000    0.0000 C   0  0  0  0  0  0  0  0  0  0  0  0
    2.3800    2.1000    0.0000 C   0  0  0  0  0  0  0  0  0  0  0  0
    3.5933    1.4000    0.0000 C   0  0  0  0  0  0  0  0  0  0  0  0
    4.8067    2.1000    0.0000 C   0  0  0  0  0  0  0  0  0  0  0  0
    4.8067    3.5000    0.0000 C   0  0  0  0  0  0  0  0  0  0  0  0
    3.5933    4.2000    0.0000 C   0  0  0  0  0  0  0  0  0  0  0  0
    1.1667    4.2000    0.0000 C   0  0  0  0  0  0  0  0  0  0  0  0
    0.0000    3.5000    0.0000 C   0  0  0  0  0  0  0  0  0  0  0  0
    0.0000    2.1000    0.0000 C   0  0  0  0  0  0  0  0  0  0  0  0
    1.1667    1.4000    0.0000 C   0  0  0  0  0  0  0  0  0  0  0  0
    3.5933    5.3200    0.0000 N   0  0  0  0  0  0  0  0  0  0  0  0
    4.4333    6.0667    0.0000 O   0  0  0  0  0  0  0  0  0  0  0  0
    2.7533    5.9733    0.0000 O   0  0  0  0  0  0  0  0  0  0  0  0
    6.0200    1.4000    0.0000 N   0  0  0  0  0  0  0  0  0  0  0  0
    6.0200   -0.0000    0.0000 O   0  0  0  0  0  0  0  0  0  0  0  0
    7.2333    2.1000    0.0000 O   0  0  0  0  0  0  0  0  0  0  0  0
    1.1667    5.1800    0.0000 N   0  0  0  0  0  0  0  0  0  0  0  0
    1.8200    6.0200    0.0000 O   0  0  0  0  0  0  0  0  0  0  0  0
    0.0000    5.9733    0.0000 O   0  0  0  0  0  0  0  0  0  0  0  0
  1  2  1  0
  2  3  2  0
  3  4  1  0
  4  5  2  0
  5  6  1  0
  1  6  2  0
  1  7  1  0
  7  8  2  0
  8  9  1  0
  9 10  2  0
  2 10  1  0
  6 11  1  0
 11 12  1  0
 11 13  2  0
  4 14  1  0
 14 15  1  0
 14 16  2  0
  7 17  1  0
 17 18  1  0
 17 19  2  0
M  CHG  6  11   1  12  -1  14   1  15  -1  17   1  18  -1
M  END
>  <Compound Name>  (59) 
1,3,8-trinitronaphthalene

>  <Formula>  (59) 
C10H5N3O6

>  <LogP>  (59) 
2.3

>  <LUMO>  (59) 
-2.468

>  <MOL_ID>  (59) 
60

>  <Activity>  (59) 
0.35

$$$$
2-chloro-7-nitrofluorene
     RDKit          2D

 17 19  0  0  0  0  0  0  0  0999 V2000
    2.3800    3.5000    0.0000 C   0  0  0  0  0  0  0  0  0  0  0  0
    2.3800    2.1000    0.0000 C   0  0  0  0  0  0  0  0  0  0  0  0
    3.5933    1.4000    0.0000 C   0  0  0  0  0  0  0  0  0  0  0  0
    4.8067    2.1000    0.0000 C   0  0  0  0  0  0  0  0  0  0  0  0
    4.8067    3.5000    0.0000 C   0  0  0  0  0  0  0  0  0  0  0  0
    3.5933    4.1533    0.0000 C   0  0  0  0  0  0  0  0  0  0  0  0
    6.0200    1.4000    0.0000 C   0  0  0  0  0  0  0  0  0  0  0  0
    7.2333    2.1000    0.0000 C   0  0  0  0  0  0  0  0  0  0  0  0
    7.2333    3.5000    0.0000 C   0  0  0  0  0  0  0  0  0  0  0  0
    8.4467    1.4000    0.0000 C   0  0  0  0  0  0  0  0  0  0  0  0
    9.6600    2.1000    0.0000 C   0  0  0  0  0  0  0  0  0  0  0  0
    9.6600    3.5000    0.0000 C   0  0  0  0  0  0  0  0  0  0  0  0
    8.4467    4.1533    0.0000 C   0  0  0  0  0  0  0  0  0  0  0  0
   10.8733    1.4000    0.0000 Cl  0  0  0  0  0  0  0  0  0  0  0  0
    1.1667    1.4000    0.0000 N   0  0  0  0  0  0  0  0  0  0  0  0
   -0.0000    2.1000    0.0000 O   0  0  0  0  0  0  0  0  0  0  0  0
    1.1667    0.0000    0.0000 O   0  0  0  0  0  0  0  0  0  0  0  0
  1  2  2  0
  2  3  1  0
  3  4  2  0
  4  5  1  0
  5  6  2  0
  1  6  1  0
  4  7  1  0
  7  8  1  0
  8  9  2  0
  5  9  1  0
  8 10  1  0
 10 11  2  0
 11 12  1  0
 12 13  2  0
  9 13  1  0
 11 14  1  0
  2 15  1  0
 15 16  1  0
 15 17  2  0
M  CHG  2  15   1  16  -1
M  END
>  <Compound Name>  (60) 
2-chloro-7-nitrofluorene

>  <Formula>  (60) 
C13H8ClNO2

>  <LogP>  (60) 
4.68

>  <LUMO>  (60) 
-1.556

>  <MOL_ID>  (60) 
61

>  <Activity>  (60) 
3.11

$$$$
2-amino-5-nitrophenol
     RDKit          2D

 11 11  0  0  0  0  0  0  0  0999 V2000
    1.3526    3.6380    0.0000 C   0  0  0  0  0  0  0  0  0  0  0  0
    2.0522    2.4253    0.0000 C   0  0  0  0  0  0  0  0  0  0  0  0
    3.4514    2.4253    0.0000 C   0  0  0  0  0  0  0  0  0  0  0  0
    4.1510    3.6380    0.0000 C   0  0  0  0  0  0  0  0  0  0  0  0
    3.4514    4.8506    0.0000 C   0  0  0  0  0  0  0  0  0  0  0  0
    2.0522    4.8506    0.0000 C   0  0  0  0  0  0  0  0  0  0  0  0
    5.5503    3.6380    0.0000 O   0  0  0  0  0  0  0  0  0  0  0  0
    4.1510    6.0167    0.0000 N   0  0  0  0  0  0  0  0  0  0  0  0
    1.3526    1.2127    0.0000 N   0  0  0  0  0  0  0  0  0  0  0  0
   -0.0000    1.2127    0.0000 O   0  0  0  0  0  0  0  0  0  0  0  0
    2.0522   -0.0000    0.0000 O   0  0  0  0  0  0  0  0  0  0  0  0
  1  2  2  0
  2  3  1  0
  3  4  2  0
  4  5  1  0
  5  6  2  0
  1  6  1  0
  4  7  1  0
  5  8  1  0
  2  9  1  0
  9 10  1  0
  9 11  2  0
M  CHG  2   9   1  10  -1
M  END
>  <Compound Name>  (61) 
2-amino-5-nitrophenol

>  <Formula>  (61) 
C6H6N2O3

>  <LogP>  (61) 
1.36

>  <LUMO>  (61) 
-0.923

>  <MOL_ID>  (61) 
62

>  <Activity>  (61) 
-2.4

$$$$
N'(5nitro2furfuryliden)5nitro2furanacrylohydrazide
     RDKit          2D

 23 24  0  0  0  0  0  0  0  0999 V2000
    5.6435    3.0316    0.0000 C   0  0  0  0  0  0  0  0  0  0  0  0
    4.2443    3.0316    0.0000 C   0  0  0  0  0  0  0  0  0  0  0  0
    3.8245    1.6791    0.0000 C   0  0  0  0  0  0  0  0  0  0  0  0
    4.9439    0.8862    0.0000 O   0  0  0  0  0  0  0  0  0  0  0  0
    6.0633    1.6791    0.0000 C   0  0  0  0  0  0  0  0  0  0  0  0
    7.2760    0.9795    0.0000 C   0  0  0  0  0  0  0  0  0  0  0  0
    8.4886    1.6791    0.0000 C   0  0  0  0  0  0  0  0  0  0  0  0
    2.4720    1.3526    0.0000 N   0  0  0  0  0  0  0  0  0  0  0  0
    1.5391    2.3320    0.0000 O   0  0  0  0  0  0  0  0  0  0  0  0
    2.0988    0.0000    0.0000 O   0  0  0  0  0  0  0  0  0  0  0  0
    8.4886    3.0783    0.0000 C   0  0  0  0  0  0  0  0  0  0  0  0
    9.7013    3.7779    0.0000 O   0  0  0  0  0  0  0  0  0  0  0  0
    7.2760    3.7779    0.0000 N   0  0  0  0  0  0  0  0  0  0  0  0
    7.2760    5.1771    0.0000 N   0  0  0  0  0  0  0  0  0  0  0  0
    6.0633    5.8767    0.0000 C   0  0  0  0  0  0  0  0  0  0  0  0
    4.7107    5.5503    0.0000 C   0  0  0  0  0  0  0  0  0  0  0  0
    3.4981    6.3898    0.0000 O   0  0  0  0  0  0  0  0  0  0  0  0
    2.3320    5.5503    0.0000 C   0  0  0  0  0  0  0  0  0  0  0  0
    2.7984    4.1510    0.0000 C   0  0  0  0  0  0  0  0  0  0  0  0
    4.2910    4.1510    0.0000 C   0  0  0  0  0  0  0  0  0  0  0  0
    0.9795    5.8767    0.0000 N   0  0  0  0  0  0  0  0  0  0  0  0
    0.6063    7.2293    0.0000 O   0  0  0  0  0  0  0  0  0  0  0  0
    0.0000    4.8973    0.0000 O   0  0  0  0  0  0  0  0  0  0  0  0
  1  2  1  0
  2  3  2  0
  3  4  1  0
  4  5  1  0
  1  5  2  0
  5  6  1  0
  6  7  2  0
  3  8  1  0
  8  9  1  0
  8 10  2  0
  7 11  1  0
 11 12  2  0
 11 13  1  0
 13 14  1  0
 14 15  2  0
 15 16  1  0
 16 17  1  0
 17 18  1  0
 18 19  2  0
 19 20  1  0
 16 20  2  0
 18 21  1  0
 21 22  1  0
 21 23  2  0
M  CHG  4   8   1   9  -1  21   1  22  -1
M  END
>  <Compound Name>  (62) 
N'(5nitro2furfuryliden)5nitro2furanacrylohydrazide

>  <Formula>  (62) 
C12H8N4O7

>  <LogP>  (62) 
2.79

>  <LUMO>  (62) 
-3.768

>  <MOL_ID>  (62) 
63

>  <Activity>  (62) 
2.45

$$$$
2,7-dinitro-9-fluorenone
     RDKit          2D

 20 22  0  0  0  0  0  0  0  0999 V2000
    2.3787    3.4981    0.0000 C   0  0  0  0  0  0  0  0  0  0  0  0
    2.3787    2.0988    0.0000 C   0  0  0  0  0  0  0  0  0  0  0  0
    3.5913    1.3992    0.0000 C   0  0  0  0  0  0  0  0  0  0  0  0
    4.8040    2.0988    0.0000 C   0  0  0  0  0  0  0  0  0  0  0  0
    4.8040    3.4981    0.0000 C   0  0  0  0  0  0  0  0  0  0  0  0
    3.5913    4.1977    0.0000 C   0  0  0  0  0  0  0  0  0  0  0  0
    6.0167    1.3992    0.0000 C   0  0  0  0  0  0  0  0  0  0  0  0
    7.2293    2.0988    0.0000 C   0  0  0  0  0  0  0  0  0  0  0  0
    7.2293    3.4981    0.0000 C   0  0  0  0  0  0  0  0  0  0  0  0
    8.4420    1.3992    0.0000 C   0  0  0  0  0  0  0  0  0  0  0  0
    9.6546    2.0988    0.0000 C   0  0  0  0  0  0  0  0  0  0  0  0
    9.6546    3.4981    0.0000 C   0  0  0  0  0  0  0  0  0  0  0  0
    8.4420    4.1977    0.0000 C   0  0  0  0  0  0  0  0  0  0  0  0
    6.0167    0.0000    0.0000 O   0  0  0  0  0  0  0  0  0  0  0  0
   10.8673    1.3992    0.0000 N   0  0  0  0  0  0  0  0  0  0  0  0
   10.8673    0.0000    0.0000 O   0  0  0  0  0  0  0  0  0  0  0  0
   12.0800    2.0988    0.0000 O   0  0  0  0  0  0  0  0  0  0  0  0
    1.1660    1.3992    0.0000 N   0  0  0  0  0  0  0  0  0  0  0  0
    0.0000    2.0988    0.0000 O   0  0  0  0  0  0  0  0  0  0  0  0
    1.1660    0.0000    0.0000 O   0  0  0  0  0  0  0  0  0  0  0  0
  1  2  2  0
  2  3  1  0
  3  4  2  0
  4  5  1  0
  5  6  2  0
  1  6  1  0
  4  7  1  0
  7  8  1  0
  8  9  2  0
  5  9  1  0
  8 10  1  0
 10 11  2  0
 11 12  1  0
 12 13  2  0
  9 13  1  0
  7 14  2  0
 11 15  1  0
 15 16  1  0
 15 17  2  0
  2 18  1  0
 18 19  1  0
 18 20  2  0
M  CHG  4  15   1  16  -1  18   1  19  -1
M  END
>  <Compound Name>  (63) 
2,7-dinitro-9-fluorenone

>  <Formula>  (63) 
C13H6N2O5

>  <LogP>  (63) 
2.84

>  <LUMO>  (63) 
-2.338

>  <MOL_ID>  (63) 
64

>  <Activity>  (63) 
3.19

$$$$
1,3-dinitronaphthalene
     RDKit          2D

 16 17  0  0  0  0  0  0  0  0999 V2000
    2.3787    3.4980    0.0000 C   0  0  0  0  0  0  0  0  0  0  0  0
    2.3787    2.0988    0.0000 C   0  0  0  0  0  0  0  0  0  0  0  0
    3.5913    1.3992    0.0000 C   0  0  0  0  0  0  0  0  0  0  0  0
    4.8040    2.0988    0.0000 C   0  0  0  0  0  0  0  0  0  0  0  0
    4.8040    3.4980    0.0000 C   0  0  0  0  0  0  0  0  0  0  0  0
    3.5913    4.1977    0.0000 C   0  0  0  0  0  0  0  0  0  0  0  0
    1.1660    4.1977    0.0000 C   0  0  0  0  0  0  0  0  0  0  0  0
   -0.0000    3.4980    0.0000 C   0  0  0  0  0  0  0  0  0  0  0  0
   -0.0000    2.0988    0.0000 C   0  0  0  0  0  0  0  0  0  0  0  0
    1.1660    1.3992    0.0000 C   0  0  0  0  0  0  0  0  0  0  0  0
    3.5913    5.5969    0.0000 N   0  0  0  0  0  0  0  0  0  0  0  0
    4.8040    6.2965    0.0000 O   0  0  0  0  0  0  0  0  0  0  0  0
    2.3787    6.2965    0.0000 O   0  0  0  0  0  0  0  0  0  0  0  0
    6.0166    1.3992    0.0000 N   0  0  0  0  0  0  0  0  0  0  0  0
    6.0166   -0.0000    0.0000 O   0  0  0  0  0  0  0  0  0  0  0  0
    7.2293    2.0988    0.0000 O   0  0  0  0  0  0  0  0  0  0  0  0
  1  2  1  0
  2  3  2  0
  3  4  1  0
  4  5  2  0
  5  6  1  0
  1  6  2  0
  1  7  1  0
  7  8  2  0
  8  9  1  0
  9 10  2  0
  2 10  1  0
  6 11  1  0
 11 12  1  0
 11 13  2  0
  4 14  1  0
 14 15  1  0
 14 16  2  0
M  CHG  4  11   1  12  -1  14   1  15  -1
M  END
>  <Compound Name>  (64) 
1,3-dinitronaphthalene

>  <Formula>  (64) 
C10H6N2O4

>  <LogP>  (64) 
2.83

>  <LUMO>  (64) 
-1.952

>  <MOL_ID>  (64) 
65

>  <Activity>  (64) 
-0.05

$$$$
4-amino-3'-nitrobiphenyl
     RDKit          2D

 16 17  0  0  0  0  0  0  0  0999 V2000
    2.0522    2.4253    0.0000 C   0  0  0  0  0  0  0  0  0  0  0  0
    1.3526    1.2127    0.0000 C   0  0  0  0  0  0  0  0  0  0  0  0
    2.0522    0.0000    0.0000 C   0  0  0  0  0  0  0  0  0  0  0  0
    3.4514    0.0000    0.0000 C   0  0  0  0  0  0  0  0  0  0  0  0
    4.1510    1.2127    0.0000 C   0  0  0  0  0  0  0  0  0  0  0  0
    3.4514    2.4253    0.0000 C   0  0  0  0  0  0  0  0  0  0  0  0
    5.5503    1.2127    0.0000 C   0  0  0  0  0  0  0  0  0  0  0  0
    6.2499    0.0000    0.0000 C   0  0  0  0  0  0  0  0  0  0  0  0
    7.6491    0.0000    0.0000 C   0  0  0  0  0  0  0  0  0  0  0  0
    8.3487    1.2127    0.0000 C   0  0  0  0  0  0  0  0  0  0  0  0
    7.6491    2.4253    0.0000 C   0  0  0  0  0  0  0  0  0  0  0  0
    6.2499    2.4253    0.0000 C   0  0  0  0  0  0  0  0  0  0  0  0
    1.3526    3.6380    0.0000 N   0  0  0  0  0  0  0  0  0  0  0  0
    2.0522    4.8040    0.0000 O   0  0  0  0  0  0  0  0  0  0  0  0
    0.0000    3.6380    0.0000 O   0  0  0  0  0  0  0  0  0  0  0  0
    9.7479    1.2127    0.0000 N   0  0  0  0  0  0  0  0  0  0  0  0
  1  2  2  0
  2  3  1  0
  3  4  2  0
  4  5  1  0
  5  6  2  0
  1  6  1  0
  5  7  1  0
  7  8  2  0
  8  9  1  0
  9 10  2  0
 10 11  1  0
 11 12  2  0
  7 12  1  0
  1 13  1  0
 13 14  1  0
 13 15  2  0
 10 16  1  0
M  CHG  2  13   1  14  -1
M  END
>  <Compound Name>  (65) 
4-amino-3'-nitrobiphenyl

>  <Formula>  (65) 
C12H10N2O2

>  <LogP>  (65) 
2.68

>  <LUMO>  (65) 
-0.959

>  <MOL_ID>  (65) 
66

>  <Activity>  (65) 
-1.52

$$$$
2-hydroxy-1-nitrofluoranthene
     RDKit          2D

 20 23  0  0  0  0  0  0  0  0999 V2000
    2.3787    2.0988    0.0000 C   0  0  0  0  0  0  0  0  0  0  0  0
    2.3787    0.6996    0.0000 C   0  0  0  0  0  0  0  0  0  0  0  0
    3.5913   -0.0000    0.0000 C   0  0  0  0  0  0  0  0  0  0  0  0
    4.8040    0.6996    0.0000 C   0  0  0  0  0  0  0  0  0  0  0  0
    4.8040    2.0988    0.0000 C   0  0  0  0  0  0  0  0  0  0  0  0
    3.5913    2.7984    0.0000 C   0  0  0  0  0  0  0  0  0  0  0  0
    1.1660    2.7984    0.0000 C   0  0  0  0  0  0  0  0  0  0  0  0
   -0.0000    2.0988    0.0000 C   0  0  0  0  0  0  0  0  0  0  0  0
   -0.0000    0.6996    0.0000 C   0  0  0  0  0  0  0  0  0  0  0  0
    1.1660   -0.0000    0.0000 C   0  0  0  0  0  0  0  0  0  0  0  0
    3.0783    4.1977    0.0000 C   0  0  0  0  0  0  0  0  0  0  0  0
    1.6324    4.1977    0.0000 C   0  0  0  0  0  0  0  0  0  0  0  0
    3.8245    5.4569    0.0000 C   0  0  0  0  0  0  0  0  0  0  0  0
    3.0783    6.7162    0.0000 C   0  0  0  0  0  0  0  0  0  0  0  0
    1.6324    6.7162    0.0000 C   0  0  0  0  0  0  0  0  0  0  0  0
    0.9328    5.4569    0.0000 C   0  0  0  0  0  0  0  0  0  0  0  0
    6.0166   -0.0000    0.0000 O   0  0  0  0  0  0  0  0  0  0  0  0
    6.0166    2.7984    0.0000 N   0  0  0  0  0  0  0  0  0  0  0  0
    7.2293    2.0988    0.0000 O   0  0  0  0  0  0  0  0  0  0  0  0
    6.0166    4.1977    0.0000 O   0  0  0  0  0  0  0  0  0  0  0  0
  1  2  1  0
  2  3  2  0
  3  4  1  0
  4  5  2  0
  5  6  1  0
  1  6  2  0
  1  7  1  0
  7  8  2  0
  8  9  1  0
  9 10  2  0
  2 10  1  0
  6 11  1  0
  7 12  1  0
 11 12  2  0
 11 13  1  0
 13 14  2  0
 14 15  1  0
 15 16  2  0
 12 16  1  0
  4 17  1  0
  5 18  1  0
 18 19  1  0
 18 20  2  0
M  CHG  2  18   1  19  -1
M  END
>  <Compound Name>  (66) 
2-hydroxy-1-nitrofluoranthene

>  <Formula>  (66) 
C16H9NO3

>  <LogP>  (66) 
4.66

>  <LUMO>  (66) 
-1.536

>  <MOL_ID>  (66) 
67

>  <Activity>  (66) 
2.26

$$$$
3-nitro-benzo[a]pyrene
     RDKit          2D

 23 27  0  0  0  0  0  0  0  0999 V2000
    0.0000    2.1000    0.0000 C   0  0  0  0  0  0  0  0  0  0  0  0
    0.0000    0.7000    0.0000 C   0  0  0  0  0  0  0  0  0  0  0  0
    1.1667    0.0000    0.0000 C   0  0  0  0  0  0  0  0  0  0  0  0
    2.3800    0.7000    0.0000 C   0  0  0  0  0  0  0  0  0  0  0  0
    2.3800    2.1000    0.0000 C   0  0  0  0  0  0  0  0  0  0  0  0
    1.1667    2.8000    0.0000 C   0  0  0  0  0  0  0  0  0  0  0  0
    3.5933    0.0000    0.0000 C   0  0  0  0  0  0  0  0  0  0  0  0
    4.8066    0.7000    0.0000 C   0  0  0  0  0  0  0  0  0  0  0  0
    4.8066    2.1000    0.0000 C   0  0  0  0  0  0  0  0  0  0  0  0
    3.5933    2.8000    0.0000 C   0  0  0  0  0  0  0  0  0  0  0  0
    6.0200    0.0000    0.0000 C   0  0  0  0  0  0  0  0  0  0  0  0
    7.2333    0.7000    0.0000 C   0  0  0  0  0  0  0  0  0  0  0  0
    7.2333    2.1000    0.0000 C   0  0  0  0  0  0  0  0  0  0  0  0
    6.0200    2.8000    0.0000 C   0  0  0  0  0  0  0  0  0  0  0  0
    6.0200    4.2000    0.0000 C   0  0  0  0  0  0  0  0  0  0  0  0
    4.8066    4.8533    0.0000 C   0  0  0  0  0  0  0  0  0  0  0  0
    3.5933    4.2000    0.0000 C   0  0  0  0  0  0  0  0  0  0  0  0
    8.4466    2.8000    0.0000 C   0  0  0  0  0  0  0  0  0  0  0  0
    8.4466    4.2000    0.0000 C   0  0  0  0  0  0  0  0  0  0  0  0
    7.2333    4.8533    0.0000 C   0  0  0  0  0  0  0  0  0  0  0  0
    9.6600    2.1000    0.0000 N   0  0  0  0  0  0  0  0  0  0  0  0
    9.6600    0.7000    0.0000 O   0  0  0  0  0  0  0  0  0  0  0  0
   10.8733    2.8000    0.0000 O   0  0  0  0  0  0  0  0  0  0  0  0
  1  2  2  0
  2  3  1  0
  3  4  2  0
  4  5  1  0
  5  6  2  0
  1  6  1  0
  4  7  1  0
  7  8  2  0
  8  9  1  0
  9 10  2  0
  5 10  1  0
  8 11  1  0
 11 12  2  0
 12 13  1  0
 13 14  2  0
  9 14  1  0
 14 15  1  0
 15 16  1  0
 16 17  2  0
 10 17  1  0
 13 18  1  0
 18 19  2  0
 19 20  1  0
 15 20  2  0
 18 21  1  0
 21 22  1  0
 21 23  2  0
M  CHG  2  21   1  22  -1
M  END
>  <Compound Name>  (67) 
3-nitro-benzo[a]pyrene

>  <Formula>  (67) 
C20H11NO2

>  <LogP>  (67) 
5.87

>  <LUMO>  (67) 
-1.766

>  <MOL_ID>  (67) 
68

>  <Activity>  (67) 
2.82

$$$$
2,5-dinitrofluorene
     RDKit          2D

 19 21  0  0  0  0  0  0  0  0999 V2000
   -0.0000    3.4981    0.0000 C   0  0  0  0  0  0  0  0  0  0  0  0
   -0.0000    2.0988    0.0000 C   0  0  0  0  0  0  0  0  0  0  0  0
    1.1660    1.3992    0.0000 C   0  0  0  0  0  0  0  0  0  0  0  0
    2.3787    2.0988    0.0000 C   0  0  0  0  0  0  0  0  0  0  0  0
    2.3787    3.4981    0.0000 C   0  0  0  0  0  0  0  0  0  0  0  0
    1.1660    4.1977    0.0000 C   0  0  0  0  0  0  0  0  0  0  0  0
    3.5913    1.3992    0.0000 C   0  0  0  0  0  0  0  0  0  0  0  0
    4.8040    2.0988    0.0000 C   0  0  0  0  0  0  0  0  0  0  0  0
    4.8040    3.4981    0.0000 C   0  0  0  0  0  0  0  0  0  0  0  0
    6.0167    1.3992    0.0000 C   0  0  0  0  0  0  0  0  0  0  0  0
    7.2293    2.0988    0.0000 C   0  0  0  0  0  0  0  0  0  0  0  0
    7.2293    3.4981    0.0000 C   0  0  0  0  0  0  0  0  0  0  0  0
    6.0167    4.1977    0.0000 C   0  0  0  0  0  0  0  0  0  0  0  0
    8.4420    1.3992    0.0000 N   0  0  0  0  0  0  0  0  0  0  0  0
    8.4420   -0.0000    0.0000 O   0  0  0  0  0  0  0  0  0  0  0  0
    9.6547    2.0988    0.0000 O   0  0  0  0  0  0  0  0  0  0  0  0
    1.1660    5.5969    0.0000 N   0  0  0  0  0  0  0  0  0  0  0  0
    2.3787    6.2965    0.0000 O   0  0  0  0  0  0  0  0  0  0  0  0
   -0.0000    6.2965    0.0000 O   0  0  0  0  0  0  0  0  0  0  0  0
  1  2  2  0
  2  3  1  0
  3  4  2  0
  4  5  1  0
  5  6  2  0
  1  6  1  0
  4  7  1  0
  7  8  1  0
  8  9  2  0
  5  9  1  0
  8 10  1  0
 10 11  2  0
 11 12  1  0
 12 13  2  0
  9 13  1  0
 11 14  1  0
 14 15  1  0
 14 16  2  0
  6 17  1  0
 17 18  1  0
 17 19  2  0
M  CHG  4  14   1  15  -1  17   1  18  -1
M  END
>  <Compound Name>  (68) 
2,5-dinitrofluorene

>  <Formula>  (68) 
C13H8N2O4

>  <LogP>  (68) 
3.71

>  <LUMO>  (68) 
-1.929

>  <MOL_ID>  (68) 
69

>  <Activity>  (68) 
3.2

$$$$
5-nitroisatin
     RDKit          2D

 14 15  0  0  0  0  0  0  0  0999 V2000
    2.3787    2.0988    0.0000 C   0  0  0  0  0  0  0  0  0  0  0  0
    2.3787    0.6996    0.0000 C   0  0  0  0  0  0  0  0  0  0  0  0
    3.5913    0.0000    0.0000 C   0  0  0  0  0  0  0  0  0  0  0  0
    4.8040    0.6996    0.0000 C   0  0  0  0  0  0  0  0  0  0  0  0
    4.8040    2.0988    0.0000 C   0  0  0  0  0  0  0  0  0  0  0  0
    3.5913    2.7984    0.0000 C   0  0  0  0  0  0  0  0  0  0  0  0
    6.0167    0.0000    0.0000 N   0  0  0  0  0  2  0  0  0  0  0  0
    7.2293    0.6996    0.0000 C   0  0  0  0  0  0  0  0  0  0  0  0
    7.2293    2.0988    0.0000 C   0  0  0  0  0  0  0  0  0  0  0  0
    8.2088    3.0783    0.0000 O   0  0  0  0  0  0  0  0  0  0  0  0
    8.4420    0.0000    0.0000 O   0  0  0  0  0  0  0  0  0  0  0  0
    1.1660    2.7984    0.0000 N   0  0  0  0  0  0  0  0  0  0  0  0
    1.1660    4.1977    0.0000 O   0  0  0  0  0  0  0  0  0  0  0  0
   -0.0000    2.0988    0.0000 O   0  0  0  0  0  0  0  0  0  0  0  0
  1  2  2  0
  2  3  1  0
  3  4  2  0
  4  5  1  0
  5  6  2  0
  1  6  1  0
  4  7  1  0
  7  8  1  0
  8  9  1  0
  5  9  1  0
  9 10  2  0
  8 11  2  0
  1 12  1  0
 12 13  1  0
 12 14  2  0
M  CHG  2  12   1  13  -1
M  RAD  1   7   2
M  END
>  <Compound Name>  (69) 
5-nitroisatin

>  <Formula>  (69) 
C8H3N2O4

>  <LogP>  (69) 
0.47

>  <LUMO>  (69) 
-1.786

>  <MOL_ID>  (69) 
70

>  <Activity>  (69) 
-0.94

$$$$
1,8-dinitro-9,10,11,12-tetrahydrobenzo[e]pyrene
     RDKit          2D

 26 30  0  0  0  0  0  0  0  0999 V2000
    4.8040    6.3432    0.0000 C   0  0  0  0  0  0  0  0  0  0  0  0
    3.5913    6.9961    0.0000 C   0  0  0  0  0  0  0  0  0  0  0  0
    2.3787    6.3432    0.0000 C   0  0  0  0  0  0  0  0  0  0  0  0
    2.3787    4.9439    0.0000 C   0  0  0  0  0  0  0  0  0  0  0  0
    3.5913    4.2443    0.0000 C   0  0  0  0  0  0  0  0  0  0  0  0
    4.8040    4.9439    0.0000 C   0  0  0  0  0  0  0  0  0  0  0  0
    3.5913    2.8451    0.0000 C   0  0  0  0  0  0  0  0  0  0  0  0
    4.8040    2.1455    0.0000 C   0  0  0  0  0  0  0  0  0  0  0  0
    6.0167    2.8451    0.0000 C   0  0  0  0  0  0  0  0  0  0  0  0
    6.0167    4.2443    0.0000 C   0  0  0  0  0  0  0  0  0  0  0  0
    2.3787    2.1455    0.0000 C   0  0  0  0  0  0  0  0  0  0  0  0
    2.3787    0.7463    0.0000 C   0  0  0  0  0  0  0  0  0  0  0  0
    3.5913   -0.0000    0.0000 C   0  0  0  0  0  0  0  0  0  0  0  0
    4.8040    0.7463    0.0000 C   0  0  0  0  0  0  0  0  0  0  0  0
    7.2293    2.1455    0.0000 C   0  0  0  0  0  0  0  0  0  0  0  0
    8.4420    2.8451    0.0000 C   0  0  0  0  0  0  0  0  0  0  0  0
    8.4420    4.2443    0.0000 C   0  0  0  0  0  0  0  0  0  0  0  0
    7.2293    4.9439    0.0000 C   0  0  0  0  0  0  0  0  0  0  0  0
    6.0167   -0.0000    0.0000 C   0  0  0  0  0  0  0  0  0  0  0  0
    7.2293    0.7463    0.0000 C   0  0  0  0  0  0  0  0  0  0  0  0
    7.2293    6.3432    0.0000 N   0  0  0  0  0  0  0  0  0  0  0  0
    8.4420    6.9961    0.0000 O   0  0  0  0  0  0  0  0  0  0  0  0
    6.0167    6.9961    0.0000 O   0  0  0  0  0  0  0  0  0  0  0  0
    1.1660    2.8451    0.0000 N   0  0  0  0  0  0  0  0  0  0  0  0
    1.1660    4.2443    0.0000 O   0  0  0  0  0  0  0  0  0  0  0  0
    0.0000    2.1455    0.0000 O   0  0  0  0  0  0  0  0  0  0  0  0
  1  2  1  0
  2  3  1  0
  3  4  1  0
  4  5  1  0
  5  6  2  0
  1  6  1  0
  5  7  1  0
  7  8  2  0
  8  9  1  0
  9 10  2  0
  6 10  1  0
  7 11  1  0
 11 12  2  0
 12 13  1  0
 13 14  2  0
  8 14  1  0
  9 15  1  0
 15 16  2  0
 16 17  1  0
 17 18  2  0
 10 18  1  0
 14 19  1  0
 19 20  2  0
 15 20  1  0
 18 21  1  0
 21 22  1  0
 21 23  2  0
 11 24  1  0
 24 25  1  0
 24 26  2  0
M  CHG  4  21   1  22  -1  24   1  25  -1
M  END
>  <Compound Name>  (70) 
1,8-dinitro-9,10,11,12-tetrahydrobenzo[e]pyrene

>  <Formula>  (70) 
C20H14N2O4

>  <LogP>  (70) 
6.01

>  <LUMO>  (70) 
-2.095

>  <MOL_ID>  (70) 
71

>  <Activity>  (70) 
2.19

$$$$
2-nitrofluorene
     RDKit          2D

 16 18  0  0  0  0  0  0  0  0999 V2000
   -0.0000    3.4980    0.0000 C   0  0  0  0  0  0  0  0  0  0  0  0
   -0.0000    2.0988    0.0000 C   0  0  0  0  0  0  0  0  0  0  0  0
    1.1660    1.3992    0.0000 C   0  0  0  0  0  0  0  0  0  0  0  0
    2.3787    2.0988    0.0000 C   0  0  0  0  0  0  0  0  0  0  0  0
    2.3787    3.4980    0.0000 C   0  0  0  0  0  0  0  0  0  0  0  0
    1.1660    4.1977    0.0000 C   0  0  0  0  0  0  0  0  0  0  0  0
    3.5913    1.3992    0.0000 C   0  0  0  0  0  0  0  0  0  0  0  0
    4.8040    2.0988    0.0000 C   0  0  0  0  0  0  0  0  0  0  0  0
    4.8040    3.4980    0.0000 C   0  0  0  0  0  0  0  0  0  0  0  0
    6.0166    1.3992    0.0000 C   0  0  0  0  0  0  0  0  0  0  0  0
    7.2293    2.0988    0.0000 C   0  0  0  0  0  0  0  0  0  0  0  0
    7.2293    3.4980    0.0000 C   0  0  0  0  0  0  0  0  0  0  0  0
    6.0166    4.1977    0.0000 C   0  0  0  0  0  0  0  0  0  0  0  0
    8.4420    1.3992    0.0000 N   0  0  0  0  0  0  0  0  0  0  0  0
    8.4420   -0.0000    0.0000 O   0  0  0  0  0  0  0  0  0  0  0  0
    9.6546    2.0988    0.0000 O   0  0  0  0  0  0  0  0  0  0  0  0
  1  2  2  0
  2  3  1  0
  3  4  2  0
  4  5  1  0
  5  6  2  0
  1  6  1  0
  4  7  1  0
  7  8  1  0
  8  9  2  0
  5  9  1  0
  8 10  1  0
 10 11  2  0
 11 12  1  0
 12 13  2  0
  9 13  1  0
 11 14  1  0
 14 15  1  0
 14 16  2  0
M  CHG  2  14   1  15  -1
M  END
>  <Compound Name>  (71) 
2-nitrofluorene

>  <Formula>  (71) 
C13H9NO2

>  <LogP>  (71) 
3.37

>  <LUMO>  (71) 
-1.448

>  <MOL_ID>  (71) 
72

>  <Activity>  (71) 
1.43

$$$$
3-amino-2'-nitrobiphenyl
     RDKit          2D

 16 17  0  0  0  0  0  0  0  0999 V2000
    0.6533    2.4267    0.0000 C   0  0  0  0  0  0  0  0  0  0  0  0
   -0.0000    1.2133    0.0000 C   0  0  0  0  0  0  0  0  0  0  0  0
    0.6533    0.0000    0.0000 C   0  0  0  0  0  0  0  0  0  0  0  0
    2.0533    0.0000    0.0000 C   0  0  0  0  0  0  0  0  0  0  0  0
    2.7533    1.2133    0.0000 C   0  0  0  0  0  0  0  0  0  0  0  0
    2.0533    2.4267    0.0000 C   0  0  0  0  0  0  0  0  0  0  0  0
    4.1533    1.2133    0.0000 C   0  0  0  0  0  0  0  0  0  0  0  0
    4.8533    0.0000    0.0000 C   0  0  0  0  0  0  0  0  0  0  0  0
    6.2533    0.0000    0.0000 C   0  0  0  0  0  0  0  0  0  0  0  0
    6.9533    1.2133    0.0000 C   0  0  0  0  0  0  0  0  0  0  0  0
    6.2533    2.4267    0.0000 C   0  0  0  0  0  0  0  0  0  0  0  0
    4.8533    2.4267    0.0000 C   0  0  0  0  0  0  0  0  0  0  0  0
    6.9533    3.6400    0.0000 N   0  0  0  0  0  0  0  0  0  0  0  0
    2.7533    3.6400    0.0000 N   0  0  0  0  0  0  0  0  0  0  0  0
    4.1533    3.6400    0.0000 O   0  0  0  0  0  0  0  0  0  0  0  0
    2.0533    4.8067    0.0000 O   0  0  0  0  0  0  0  0  0  0  0  0
  1  2  2  0
  2  3  1  0
  3  4  2  0
  4  5  1  0
  5  6  2  0
  1  6  1  0
  5  7  1  0
  7  8  2  0
  8  9  1  0
  9 10  2  0
 10 11  1  0
 11 12  2  0
  7 12  1  0
 11 13  1  0
  6 14  1  0
 14 15  1  0
 14 16  2  0
M  CHG  2  14   1  15  -1
M  END
>  <Compound Name>  (72) 
3-amino-2'-nitrobiphenyl

>  <Formula>  (72) 
C12H10N2O2

>  <LogP>  (72) 
2.68

>  <LUMO>  (72) 
-0.648

>  <MOL_ID>  (72) 
73

>  <Activity>  (72) 
-2

$$$$
3-nitrobenzo[k]fluoranthene
     RDKit          2D

 23 27  0  0  0  0  0  0  0  0999 V2000
    2.0753    2.7829    0.0000 C   0  0  0  0  0  0  0  0  0  0  0  0
    0.7075    2.7829    0.0000 C   0  0  0  0  0  0  0  0  0  0  0  0
   -0.0000    1.5565    0.0000 C   0  0  0  0  0  0  0  0  0  0  0  0
    0.7075    0.3773    0.0000 C   0  0  0  0  0  0  0  0  0  0  0  0
    2.0753    0.3773    0.0000 C   0  0  0  0  0  0  0  0  0  0  0  0
    2.8300    1.5565    0.0000 C   0  0  0  0  0  0  0  0  0  0  0  0
    2.8300    4.0564    0.0000 C   0  0  0  0  0  0  0  0  0  0  0  0
    2.0753    5.2355    0.0000 C   0  0  0  0  0  0  0  0  0  0  0  0
    0.7075    5.2355    0.0000 C   0  0  0  0  0  0  0  0  0  0  0  0
   -0.0000    4.0564    0.0000 C   0  0  0  0  0  0  0  0  0  0  0  0
    4.1979    2.1225    0.0000 C   0  0  0  0  0  0  0  0  0  0  0  0
    4.1979    3.4904    0.0000 C   0  0  0  0  0  0  0  0  0  0  0  0
    5.4242    1.4150    0.0000 C   0  0  0  0  0  0  0  0  0  0  0  0
    6.5562    2.1225    0.0000 C   0  0  0  0  0  0  0  0  0  0  0  0
    6.5562    3.4904    0.0000 C   0  0  0  0  0  0  0  0  0  0  0  0
    5.4242    4.1979    0.0000 C   0  0  0  0  0  0  0  0  0  0  0  0
    7.7826    1.4150    0.0000 C   0  0  0  0  0  0  0  0  0  0  0  0
    8.9617    2.1225    0.0000 C   0  0  0  0  0  0  0  0  0  0  0  0
    8.9617    3.4904    0.0000 C   0  0  0  0  0  0  0  0  0  0  0  0
    7.7826    4.1979    0.0000 C   0  0  0  0  0  0  0  0  0  0  0  0
   10.1881    1.4150    0.0000 N   0  0  0  0  0  0  0  0  0  0  0  0
   10.1881    0.0000    0.0000 O   0  0  0  0  0  0  0  0  0  0  0  0
   11.3673    2.1225    0.0000 O   0  0  0  0  0  0  0  0  0  0  0  0
  1  2  1  0
  2  3  2  0
  3  4  1  0
  4  5  2  0
  5  6  1  0
  1  6  2  0
  1  7  1  0
  7  8  2  0
  8  9  1  0
  9 10  2  0
  2 10  1  0
  6 11  1  0
  7 12  1  0
 11 12  2  0
 11 13  1  0
 13 14  2  0
 14 15  1  0
 15 16  2  0
 12 16  1  0
 14 17  1  0
 17 18  2  0
 18 19  1  0
 19 20  2  0
 15 20  1  0
 18 21  1  0
 21 22  1  0
 21 23  2  0
M  CHG  2  21   1  22  -1
M  END
>  <Compound Name>  (73) 
3-nitrobenzo[k]fluoranthene

>  <Formula>  (73) 
C20H11NO2

>  <LogP>  (73) 
5.87

>  <LUMO>  (73) 
-1.689

>  <MOL_ID>  (73) 
74

>  <Activity>  (73) 
2.76

$$$$
4,4'-dinitrobiphenyl
     RDKit          2D

 18 19  0  0  0  0  0  0  0  0999 V2000
    2.7533    2.3800    0.0000 C   0  0  0  0  0  0  0  0  0  0  0  0
    2.0533    1.2133    0.0000 C   0  0  0  0  0  0  0  0  0  0  0  0
    2.7533   -0.0000    0.0000 C   0  0  0  0  0  0  0  0  0  0  0  0
    4.1533   -0.0000    0.0000 C   0  0  0  0  0  0  0  0  0  0  0  0
    4.8533    1.2133    0.0000 C   0  0  0  0  0  0  0  0  0  0  0  0
    4.1533    2.3800    0.0000 C   0  0  0  0  0  0  0  0  0  0  0  0
    6.2533    1.2133    0.0000 C   0  0  0  0  0  0  0  0  0  0  0  0
    6.9533   -0.0000    0.0000 C   0  0  0  0  0  0  0  0  0  0  0  0
    8.3533   -0.0000    0.0000 C   0  0  0  0  0  0  0  0  0  0  0  0
    9.0533    1.2133    0.0000 C   0  0  0  0  0  0  0  0  0  0  0  0
    8.3533    2.3800    0.0000 C   0  0  0  0  0  0  0  0  0  0  0  0
    6.9533    2.3800    0.0000 C   0  0  0  0  0  0  0  0  0  0  0  0
   10.4533    1.2133    0.0000 N   0  0  0  0  0  0  0  0  0  0  0  0
   11.1533   -0.0000    0.0000 O   0  0  0  0  0  0  0  0  0  0  0  0
   11.1533    2.3800    0.0000 O   0  0  0  0  0  0  0  0  0  0  0  0
    0.6533    1.2133    0.0000 N   0  0  0  0  0  0  0  0  0  0  0  0
    0.0000    2.3800    0.0000 O   0  0  0  0  0  0  0  0  0  0  0  0
    0.0000   -0.0000    0.0000 O   0  0  0  0  0  0  0  0  0  0  0  0
  1  2  2  0
  2  3  1  0
  3  4  2  0
  4  5  1  0
  5  6  2  0
  1  6  1  0
  5  7  1  0
  7  8  2  0
  8  9  1  0
  9 10  2  0
 10 11  1  0
 11 12  2  0
  7 12  1  0
 10 13  1  0
 13 14  1  0
 13 15  2  0
  2 16  1  0
 16 17  1  0
 16 18  2  0
M  CHG  4  13   1  14  -1  16   1  17  -1
M  END
>  <Compound Name>  (74) 
4,4'-dinitrobiphenyl

>  <Formula>  (74) 
C12H8N2O4

>  <LogP>  (74) 
3.52

>  <LUMO>  (74) 
-1.87

>  <MOL_ID>  (74) 
75

>  <Activity>  (74) 
1.17

$$$$
2-chloronitrobenzene
     RDKit          2D

 10 10  0  0  0  0  0  0  0  0999 V2000
    0.0000    1.2127    0.0000 C   0  0  0  0  0  0  0  0  0  0  0  0
    0.6530    0.0000    0.0000 C   0  0  0  0  0  0  0  0  0  0  0  0
    2.0522    0.0000    0.0000 C   0  0  0  0  0  0  0  0  0  0  0  0
    2.7518    1.2127    0.0000 C   0  0  0  0  0  0  0  0  0  0  0  0
    2.0522    2.4253    0.0000 C   0  0  0  0  0  0  0  0  0  0  0  0
    0.6530    2.4253    0.0000 C   0  0  0  0  0  0  0  0  0  0  0  0
    2.7518    3.6380    0.0000 Cl  0  0  0  0  0  0  0  0  0  0  0  0
    4.1510    1.2127    0.0000 N   0  0  0  0  0  0  0  0  0  0  0  0
    4.8506    0.0000    0.0000 O   0  0  0  0  0  0  0  0  0  0  0  0
    4.8506    2.4253    0.0000 O   0  0  0  0  0  0  0  0  0  0  0  0
  1  2  2  0
  2  3  1  0
  3  4  2  0
  4  5  1  0
  5  6  2  0
  1  6  1  0
  5  7  1  0
  4  8  1  0
  8  9  1  0
  8 10  2  0
M  CHG  2   8   1   9  -1
M  END
>  <Compound Name>  (75) 
2-chloronitrobenzene

>  <Formula>  (75) 
C6H4ClNO2

>  <LogP>  (75) 
2.24

>  <LUMO>  (75) 
-1.069

>  <MOL_ID>  (75) 
76

>  <Activity>  (75) 
-1.72

$$$$
2-amino-3'-nitrobiphenyl
     RDKit          2D

 16 17  0  0  0  0  0  0  0  0999 V2000
    2.0522    2.4253    0.0000 C   0  0  0  0  0  0  0  0  0  0  0  0
    1.3526    1.2127    0.0000 C   0  0  0  0  0  0  0  0  0  0  0  0
    2.0522    0.0000    0.0000 C   0  0  0  0  0  0  0  0  0  0  0  0
    3.4514    0.0000    0.0000 C   0  0  0  0  0  0  0  0  0  0  0  0
    4.1510    1.2127    0.0000 C   0  0  0  0  0  0  0  0  0  0  0  0
    3.4514    2.4253    0.0000 C   0  0  0  0  0  0  0  0  0  0  0  0
    5.5502    1.2127    0.0000 C   0  0  0  0  0  0  0  0  0  0  0  0
    6.2498    0.0000    0.0000 C   0  0  0  0  0  0  0  0  0  0  0  0
    7.6491    0.0000    0.0000 C   0  0  0  0  0  0  0  0  0  0  0  0
    8.3487    1.2127    0.0000 C   0  0  0  0  0  0  0  0  0  0  0  0
    7.6491    2.4253    0.0000 C   0  0  0  0  0  0  0  0  0  0  0  0
    6.2498    2.4253    0.0000 C   0  0  0  0  0  0  0  0  0  0  0  0
    5.5502    3.6380    0.0000 N   0  0  0  0  0  0  0  0  0  0  0  0
    1.3526    3.6380    0.0000 N   0  0  0  0  0  0  0  0  0  0  0  0
    2.0522    4.8040    0.0000 O   0  0  0  0  0  0  0  0  0  0  0  0
   -0.0000    3.6380    0.0000 O   0  0  0  0  0  0  0  0  0  0  0  0
  1  2  2  0
  2  3  1  0
  3  4  2  0
  4  5  1  0
  5  6  2  0
  1  6  1  0
  5  7  1  0
  7  8  2  0
  8  9  1  0
  9 10  2  0
 10 11  1  0
 11 12  2  0
  7 12  1  0
 12 13  1  0
  1 14  1  0
 14 15  1  0
 14 16  2  0
M  CHG  2  14   1  15  -1
M  END
>  <Compound Name>  (76) 
2-amino-3'-nitrobiphenyl

>  <Formula>  (76) 
C12H10N2O2

>  <LogP>  (76) 
2.68

>  <LUMO>  (76) 
-1.029

>  <MOL_ID>  (76) 
77

>  <Activity>  (76) 
-1.52

$$$$
2'-methyl-4-nitrobiphenyl
     RDKit          2D

 16 17  0  0  0  0  0  0  0  0999 V2000
    0.6530    2.4253    0.0000 C   0  0  0  0  0  0  0  0  0  0  0  0
   -0.0000    1.2127    0.0000 C   0  0  0  0  0  0  0  0  0  0  0  0
    0.6530    0.0000    0.0000 C   0  0  0  0  0  0  0  0  0  0  0  0
    2.0522    0.0000    0.0000 C   0  0  0  0  0  0  0  0  0  0  0  0
    2.7518    1.2127    0.0000 C   0  0  0  0  0  0  0  0  0  0  0  0
    2.0522    2.4253    0.0000 C   0  0  0  0  0  0  0  0  0  0  0  0
    4.1510    1.2127    0.0000 C   0  0  0  0  0  0  0  0  0  0  0  0
    4.8506    0.0000    0.0000 C   0  0  0  0  0  0  0  0  0  0  0  0
    6.2499    0.0000    0.0000 C   0  0  0  0  0  0  0  0  0  0  0  0
    6.9495    1.2127    0.0000 C   0  0  0  0  0  0  0  0  0  0  0  0
    6.2499    2.4253    0.0000 C   0  0  0  0  0  0  0  0  0  0  0  0
    4.8506    2.4253    0.0000 C   0  0  0  0  0  0  0  0  0  0  0  0
    2.7518    3.6380    0.0000 C   0  0  0  0  0  0  0  0  0  0  0  0
    8.3487    1.2127    0.0000 N   0  0  0  0  0  0  0  0  0  0  0  0
    9.0483    0.0000    0.0000 O   0  0  0  0  0  0  0  0  0  0  0  0
    9.0483    2.4253    0.0000 O   0  0  0  0  0  0  0  0  0  0  0  0
  1  2  2  0
  2  3  1  0
  3  4  2  0
  4  5  1  0
  5  6  2  0
  1  6  1  0
  5  7  1  0
  7  8  2  0
  8  9  1  0
  9 10  2  0
 10 11  1  0
 11 12  2  0
  7 12  1  0
  6 13  1  0
 10 14  1  0
 14 15  1  0
 14 16  2  0
M  CHG  2  14   1  15  -1
M  END
>  <Compound Name>  (77) 
2'-methyl-4-nitrobiphenyl

>  <Formula>  (77) 
C13H11NO2

>  <LogP>  (77) 
4.27

>  <LUMO>  (77) 
-1.276

>  <MOL_ID>  (77) 
78

>  <Activity>  (77) 
-0.23

$$$$
2-nitrodibenzo-1,4-dioxin
     RDKit          2D

 17 19  0  0  0  0  0  0  0  0999 V2000
   -0.0000    2.0988    0.0000 C   0  0  0  0  0  0  0  0  0  0  0  0
   -0.0000    0.6996    0.0000 C   0  0  0  0  0  0  0  0  0  0  0  0
    1.1660    0.0000    0.0000 C   0  0  0  0  0  0  0  0  0  0  0  0
    2.3787    0.6996    0.0000 C   0  0  0  0  0  0  0  0  0  0  0  0
    2.3787    2.0988    0.0000 C   0  0  0  0  0  0  0  0  0  0  0  0
    1.1660    2.7985    0.0000 C   0  0  0  0  0  0  0  0  0  0  0  0
    3.5913    0.0000    0.0000 O   0  0  0  0  0  0  0  0  0  0  0  0
    4.8040    0.6996    0.0000 C   0  0  0  0  0  0  0  0  0  0  0  0
    4.8040    2.0988    0.0000 C   0  0  0  0  0  0  0  0  0  0  0  0
    3.5913    2.7985    0.0000 O   0  0  0  0  0  0  0  0  0  0  0  0
    6.0167    0.0000    0.0000 C   0  0  0  0  0  0  0  0  0  0  0  0
    7.2293    0.6996    0.0000 C   0  0  0  0  0  0  0  0  0  0  0  0
    7.2293    2.0988    0.0000 C   0  0  0  0  0  0  0  0  0  0  0  0
    6.0167    2.7985    0.0000 C   0  0  0  0  0  0  0  0  0  0  0  0
    8.4420    2.7985    0.0000 N   0  0  0  0  0  0  0  0  0  0  0  0
    9.6547    2.0988    0.0000 O   0  0  0  0  0  0  0  0  0  0  0  0
    8.4420    4.1977    0.0000 O   0  0  0  0  0  0  0  0  0  0  0  0
  1  2  2  0
  2  3  1  0
  3  4  2  0
  4  5  1  0
  5  6  2  0
  1  6  1  0
  4  7  1  0
  7  8  1  0
  8  9  2  0
  9 10  1  0
  5 10  1  0
  8 11  1  0
 11 12  2  0
 12 13  1  0
 13 14  2  0
  9 14  1  0
 13 15  1  0
 15 16  1  0
 15 17  2  0
M  CHG  2  15   1  16  -1
M  END
>  <Compound Name>  (78) 
2-nitrodibenzo-1,4-dioxin

>  <Formula>  (78) 
C12H7NO4

>  <LogP>  (78) 
4.73

>  <LUMO>  (78) 
-1.26

>  <MOL_ID>  (78) 
79

>  <Activity>  (78) 
1.79

$$$$
7-nitrofluoranthene
     RDKit          2D

 19 22  0  0  0  0  0  0  0  0999 V2000
    3.6846    2.0988    0.0000 C   0  0  0  0  0  0  0  0  0  0  0  0
    3.6846    0.6996    0.0000 C   0  0  0  0  0  0  0  0  0  0  0  0
    4.8973    0.0000    0.0000 C   0  0  0  0  0  0  0  0  0  0  0  0
    6.1099    0.6996    0.0000 C   0  0  0  0  0  0  0  0  0  0  0  0
    6.1099    2.0988    0.0000 C   0  0  0  0  0  0  0  0  0  0  0  0
    4.8973    2.7984    0.0000 C   0  0  0  0  0  0  0  0  0  0  0  0
    2.4720    2.7984    0.0000 C   0  0  0  0  0  0  0  0  0  0  0  0
    1.2593    2.0988    0.0000 C   0  0  0  0  0  0  0  0  0  0  0  0
    1.2593    0.6996    0.0000 C   0  0  0  0  0  0  0  0  0  0  0  0
    2.4720    0.0000    0.0000 C   0  0  0  0  0  0  0  0  0  0  0  0
    4.4775    4.1977    0.0000 C   0  0  0  0  0  0  0  0  0  0  0  0
    2.8451    4.1977    0.0000 C   0  0  0  0  0  0  0  0  0  0  0  0
    5.3170    5.5969    0.0000 C   0  0  0  0  0  0  0  0  0  0  0  0
    4.4775    6.9961    0.0000 C   0  0  0  0  0  0  0  0  0  0  0  0
    2.8451    6.9961    0.0000 C   0  0  0  0  0  0  0  0  0  0  0  0
    2.0522    5.5969    0.0000 C   0  0  0  0  0  0  0  0  0  0  0  0
    0.6530    5.5969    0.0000 N   0  0  0  0  0  0  0  0  0  0  0  0
    0.0000    6.8095    0.0000 O   0  0  0  0  0  0  0  0  0  0  0  0
    0.0000    4.3842    0.0000 O   0  0  0  0  0  0  0  0  0  0  0  0
  1  2  1  0
  2  3  2  0
  3  4  1  0
  4  5  2  0
  5  6  1  0
  1  6  2  0
  1  7  1  0
  7  8  2  0
  8  9  1  0
  9 10  2  0
  2 10  1  0
  6 11  1  0
  7 12  1  0
 11 12  2  0
 11 13  1  0
 13 14  2  0
 14 15  1  0
 15 16  2  0
 12 16  1  0
 16 17  1  0
 17 18  1  0
 17 19  2  0
M  CHG  2  17   1  18  -1
M  END
>  <Compound Name>  (79) 
7-nitrofluoranthene

>  <Formula>  (79) 
C16H9NO2

>  <LogP>  (79) 
4.69

>  <LUMO>  (79) 
-1.329

>  <MOL_ID>  (79) 
80

>  <Activity>  (79) 
1.87

$$$$
1,3-dinitrobenzene
     RDKit          2D

 12 12  0  0  0  0  0  0  0  0999 V2000
    1.3526    1.2127    0.0000 C   0  0  0  0  0  0  0  0  0  0  0  0
    2.0522    0.0000    0.0000 C   0  0  0  0  0  0  0  0  0  0  0  0
    3.4514    0.0000    0.0000 C   0  0  0  0  0  0  0  0  0  0  0  0
    4.1510    1.2127    0.0000 C   0  0  0  0  0  0  0  0  0  0  0  0
    3.4514    2.4253    0.0000 C   0  0  0  0  0  0  0  0  0  0  0  0
    2.0522    2.4253    0.0000 C   0  0  0  0  0  0  0  0  0  0  0  0
    5.5502    1.2127    0.0000 N   0  0  0  0  0  0  0  0  0  0  0  0
    6.2498    0.0000    0.0000 O   0  0  0  0  0  0  0  0  0  0  0  0
    6.2498    2.4253    0.0000 O   0  0  0  0  0  0  0  0  0  0  0  0
    1.3526    3.6380    0.0000 N   0  0  0  0  0  0  0  0  0  0  0  0
    2.0522    4.8040    0.0000 O   0  0  0  0  0  0  0  0  0  0  0  0
   -0.0000    3.6380    0.0000 O   0  0  0  0  0  0  0  0  0  0  0  0
  1  2  2  0
  2  3  1  0
  3  4  2  0
  4  5  1  0
  5  6  2  0
  1  6  1  0
  4  7  1  0
  7  8  1  0
  7  9  2  0
  6 10  1  0
 10 11  1  0
 10 12  2  0
M  CHG  4   7   1   8  -1  10   1  11  -1
M  END
>  <Compound Name>  (80) 
1,3-dinitrobenzene

>  <Formula>  (80) 
C6H4N2O4

>  <LogP>  (80) 
1.49

>  <LUMO>  (80) 
-1.937

>  <MOL_ID>  (80) 
81

>  <Activity>  (80) 
0.03

$$$$
1,2,4-trinitrofluoranthene
     RDKit          2D

 25 28  0  0  0  0  0  0  0  0999 V2000
    2.3787    4.1977    0.0000 C   0  0  0  0  0  0  0  0  0  0  0  0
    2.3787    2.7984    0.0000 C   0  0  0  0  0  0  0  0  0  0  0  0
    3.5914    2.0988    0.0000 C   0  0  0  0  0  0  0  0  0  0  0  0
    4.8040    2.7984    0.0000 C   0  0  0  0  0  0  0  0  0  0  0  0
    4.8040    4.1977    0.0000 C   0  0  0  0  0  0  0  0  0  0  0  0
    3.5914    4.8973    0.0000 C   0  0  0  0  0  0  0  0  0  0  0  0
    1.1660    4.8973    0.0000 C   0  0  0  0  0  0  0  0  0  0  0  0
   -0.0000    4.1977    0.0000 C   0  0  0  0  0  0  0  0  0  0  0  0
   -0.0000    2.7984    0.0000 C   0  0  0  0  0  0  0  0  0  0  0  0
    1.1660    2.0988    0.0000 C   0  0  0  0  0  0  0  0  0  0  0  0
    3.0783    6.2965    0.0000 C   0  0  0  0  0  0  0  0  0  0  0  0
    1.4925    6.2965    0.0000 C   0  0  0  0  0  0  0  0  0  0  0  0
    3.8712    7.6491    0.0000 C   0  0  0  0  0  0  0  0  0  0  0  0
    3.0783    9.0483    0.0000 C   0  0  0  0  0  0  0  0  0  0  0  0
    1.4925    9.0483    0.0000 C   0  0  0  0  0  0  0  0  0  0  0  0
    0.6996    7.6491    0.0000 C   0  0  0  0  0  0  0  0  0  0  0  0
    6.0167    4.8973    0.0000 N   0  0  0  0  0  0  0  0  0  0  0  0
    7.2293    4.1977    0.0000 O   0  0  0  0  0  0  0  0  0  0  0  0
    6.0167    6.2965    0.0000 O   0  0  0  0  0  0  0  0  0  0  0  0
    6.0167    2.0988    0.0000 N   0  0  0  0  0  0  0  0  0  0  0  0
    6.0167    0.6996    0.0000 O   0  0  0  0  0  0  0  0  0  0  0  0
    7.2293    2.7984    0.0000 O   0  0  0  0  0  0  0  0  0  0  0  0
    1.1660    0.6996    0.0000 N   0  0  0  0  0  0  0  0  0  0  0  0
   -0.0000    0.0000    0.0000 O   0  0  0  0  0  0  0  0  0  0  0  0
    2.3787    0.0000    0.0000 O   0  0  0  0  0  0  0  0  0  0  0  0
  1  2  1  0
  2  3  2  0
  3  4  1  0
  4  5  2  0
  5  6  1  0
  1  6  2  0
  1  7  1  0
  7  8  2  0
  8  9  1  0
  9 10  2  0
  2 10  1  0
  6 11  1  0
  7 12  1  0
 11 12  2  0
 11 13  1  0
 13 14  2  0
 14 15  1  0
 15 16  2  0
 12 16  1  0
  5 17  1  0
 17 18  1  0
 17 19  2  0
  4 20  1  0
 20 21  1  0
 20 22  2  0
 10 23  1  0
 23 24  1  0
 23 25  2  0
M  CHG  6  17   1  18  -1  20   1  21  -1  23   1  24  -1
M  END
>  <Compound Name>  (81) 
1,2,4-trinitrofluoranthene

>  <Formula>  (81) 
C16H7N3O6

>  <LogP>  (81) 
4.18

>  <LUMO>  (81) 
-2.71

>  <MOL_ID>  (81) 
82

>  <Activity>  (81) 
3.56

$$$$
4-nitrostyrene
     RDKit          2D

 11 11  0  0  0  0  0  0  0  0999 V2000
    2.0533    1.2133    0.0000 C   0  0  0  0  0  0  0  0  0  0  0  0
    2.7533   -0.0000    0.0000 C   0  0  0  0  0  0  0  0  0  0  0  0
    4.1533   -0.0000    0.0000 C   0  0  0  0  0  0  0  0  0  0  0  0
    4.8533    1.2133    0.0000 C   0  0  0  0  0  0  0  0  0  0  0  0
    4.1533    2.3800    0.0000 C   0  0  0  0  0  0  0  0  0  0  0  0
    2.7533    2.3800    0.0000 C   0  0  0  0  0  0  0  0  0  0  0  0
    6.2533    1.2133    0.0000 C   0  0  0  0  0  0  0  0  0  0  0  0
    6.9533    2.3800    0.0000 C   0  0  0  0  0  0  0  0  0  0  0  0
    0.6533    1.2133    0.0000 N   0  0  0  0  0  0  0  0  0  0  0  0
    0.0000    2.3800    0.0000 O   0  0  0  0  0  0  0  0  0  0  0  0
    0.0000   -0.0000    0.0000 O   0  0  0  0  0  0  0  0  0  0  0  0
  1  2  2  0
  2  3  1  0
  3  4  2  0
  4  5  1  0
  5  6  2  0
  1  6  1  0
  4  7  1  0
  7  8  2  0
  1  9  1  0
  9 10  1  0
  9 11  2  0
M  CHG  2   9   1  10  -1
M  END
>  <Compound Name>  (82) 
4-nitrostyrene

>  <Formula>  (82) 
C8H7NO2

>  <LogP>  (82) 
2.61

>  <LUMO>  (82) 
-1.256

>  <MOL_ID>  (82) 
84

>  <Activity>  (82) 
-1.3

$$$$
6-nitrobenz[e]aceanthrylene
     RDKit          2D

 23 27  0  0  0  0  0  0  0  0999 V2000
    3.5913    4.1977    0.0000 C   0  0  0  0  0  0  0  0  0  0  0  0
    3.5913    2.7985    0.0000 C   0  0  0  0  0  0  0  0  0  0  0  0
    4.8040    2.0988    0.0000 C   0  0  0  0  0  0  0  0  0  0  0  0
    6.0167    2.7985    0.0000 C   0  0  0  0  0  0  0  0  0  0  0  0
    6.0167    4.1977    0.0000 C   0  0  0  0  0  0  0  0  0  0  0  0
    4.8040    4.8973    0.0000 C   0  0  0  0  0  0  0  0  0  0  0  0
    2.3787    4.8973    0.0000 C   0  0  0  0  0  0  0  0  0  0  0  0
    1.1660    4.1977    0.0000 C   0  0  0  0  0  0  0  0  0  0  0  0
    1.1660    2.7985    0.0000 C   0  0  0  0  0  0  0  0  0  0  0  0
    2.3787    2.0988    0.0000 C   0  0  0  0  0  0  0  0  0  0  0  0
    4.8040    6.2965    0.0000 C   0  0  0  0  0  0  0  0  0  0  0  0
    2.3787    6.2965    0.0000 C   0  0  0  0  0  0  0  0  0  0  0  0
    7.2293    2.0988    0.0000 C   0  0  0  0  0  0  0  0  0  0  0  0
    8.4420    2.7985    0.0000 C   0  0  0  0  0  0  0  0  0  0  0  0
    8.4420    4.1977    0.0000 C   0  0  0  0  0  0  0  0  0  0  0  0
    7.2293    4.8973    0.0000 C   0  0  0  0  0  0  0  0  0  0  0  0
   -0.0000    2.0988    0.0000 C   0  0  0  0  0  0  0  0  0  0  0  0
   -0.0000    0.6996    0.0000 C   0  0  0  0  0  0  0  0  0  0  0  0
    1.1660   -0.0000    0.0000 C   0  0  0  0  0  0  0  0  0  0  0  0
    2.3787    0.6996    0.0000 C   0  0  0  0  0  0  0  0  0  0  0  0
    1.3992    7.2760    0.0000 N   0  0  0  0  0  0  0  0  0  0  0  0
    1.7723    8.5819    0.0000 O   0  0  0  0  0  0  0  0  0  0  0  0
    0.0466    6.9029    0.0000 O   0  0  0  0  0  0  0  0  0  0  0  0
  1  2  1  0
  2  3  2  0
  3  4  1  0
  4  5  2  0
  5  6  1  0
  1  6  2  0
  1  7  1  0
  7  8  2  0
  8  9  1  0
  9 10  2  0
  2 10  1  0
  6 11  1  0
  7 12  1  0
 11 12  2  0
  4 13  1  0
 13 14  2  0
 14 15  1  0
 15 16  2  0
  5 16  1  0
  9 17  1  0
 17 18  2  0
 18 19  1  0
 19 20  2  0
 10 20  1  0
 12 21  1  0
 21 22  1  0
 21 23  2  0
M  CHG  2  21   1  22  -1
M  END
>  <Compound Name>  (83) 
6-nitrobenz[e]aceanthrylene

>  <Formula>  (83) 
C20H11NO2

>  <LogP>  (83) 
5.07

>  <LUMO>  (83) 
-2.113

>  <MOL_ID>  (83) 
85

>  <Activity>  (83) 
0.04

$$$$
5-nitrobenz[k]acephenanthrylene
     RDKit          2D

 23 27  0  0  0  0  0  0  0  0999 V2000
    2.3800    6.3000    0.0000 C   0  0  0  0  0  0  0  0  0  0  0  0
    2.3800    4.9000    0.0000 C   0  0  0  0  0  0  0  0  0  0  0  0
    3.5933    4.2000    0.0000 C   0  0  0  0  0  0  0  0  0  0  0  0
    4.8067    4.9000    0.0000 C   0  0  0  0  0  0  0  0  0  0  0  0
    4.8067    6.3000    0.0000 C   0  0  0  0  0  0  0  0  0  0  0  0
    3.5933    7.0000    0.0000 C   0  0  0  0  0  0  0  0  0  0  0  0
    1.1667    7.0000    0.0000 C   0  0  0  0  0  0  0  0  0  0  0  0
    0.0000    6.3000    0.0000 C   0  0  0  0  0  0  0  0  0  0  0  0
    0.0000    4.9000    0.0000 C   0  0  0  0  0  0  0  0  0  0  0  0
    1.1667    4.2000    0.0000 C   0  0  0  0  0  0  0  0  0  0  0  0
    3.5933    8.4000    0.0000 C   0  0  0  0  0  0  0  0  0  0  0  0
    1.1667    8.4000    0.0000 C   0  0  0  0  0  0  0  0  0  0  0  0
    3.5933    2.8000    0.0000 C   0  0  0  0  0  0  0  0  0  0  0  0
    4.8067    2.1000    0.0000 C   0  0  0  0  0  0  0  0  0  0  0  0
    5.9733    2.8000    0.0000 C   0  0  0  0  0  0  0  0  0  0  0  0
    5.9733    4.2000    0.0000 C   0  0  0  0  0  0  0  0  0  0  0  0
    4.8067    0.7000    0.0000 C   0  0  0  0  0  0  0  0  0  0  0  0
    5.9733    0.0000    0.0000 C   0  0  0  0  0  0  0  0  0  0  0  0
    7.1867    0.7000    0.0000 C   0  0  0  0  0  0  0  0  0  0  0  0
    7.1867    2.1000    0.0000 C   0  0  0  0  0  0  0  0  0  0  0  0
    4.5733    9.3800    0.0000 N   0  0  0  0  0  0  0  0  0  0  0  0
    5.9267    9.0067    0.0000 O   0  0  0  0  0  0  0  0  0  0  0  0
    4.2000   10.6867    0.0000 O   0  0  0  0  0  0  0  0  0  0  0  0
  1  2  1  0
  2  3  2  0
  3  4  1  0
  4  5  2  0
  5  6  1  0
  1  6  2  0
  1  7  1  0
  7  8  2  0
  8  9  1  0
  9 10  2  0
  2 10  1  0
  6 11  1  0
  7 12  1  0
 11 12  2  0
  3 13  1  0
 13 14  2  0
 14 15  1  0
 15 16  2  0
  4 16  1  0
 14 17  1  0
 17 18  2  0
 18 19  1  0
 19 20  2  0
 15 20  1  0
 11 21  1  0
 21 22  1  0
 21 23  2  0
M  CHG  2  21   1  22  -1
M  END
>  <Compound Name>  (84) 
5-nitrobenz[k]acephenanthrylene

>  <Formula>  (84) 
C20H11NO2

>  <LogP>  (84) 
5.07

>  <LUMO>  (84) 
-1.918

>  <MOL_ID>  (84) 
86

>  <Activity>  (84) 
0.92

$$$$
2-nitrodibenzofuran
     RDKit          2D

 16 18  0  0  0  0  0  0  0  0999 V2000
   -0.0000    2.0988    0.0000 C   0  0  0  0  0  0  0  0  0  0  0  0
   -0.0000    0.6996    0.0000 C   0  0  0  0  0  0  0  0  0  0  0  0
    1.1660    0.0000    0.0000 C   0  0  0  0  0  0  0  0  0  0  0  0
    2.3787    0.6996    0.0000 C   0  0  0  0  0  0  0  0  0  0  0  0
    2.3787    2.0988    0.0000 C   0  0  0  0  0  0  0  0  0  0  0  0
    1.1660    2.7985    0.0000 C   0  0  0  0  0  0  0  0  0  0  0  0
    3.5913    0.0000    0.0000 O   0  0  0  0  0  0  0  0  0  0  0  0
    4.8040    0.6996    0.0000 C   0  0  0  0  0  0  0  0  0  0  0  0
    4.8040    2.0988    0.0000 C   0  0  0  0  0  0  0  0  0  0  0  0
    6.0167    0.0000    0.0000 C   0  0  0  0  0  0  0  0  0  0  0  0
    7.2293    0.6996    0.0000 C   0  0  0  0  0  0  0  0  0  0  0  0
    7.2293    2.0988    0.0000 C   0  0  0  0  0  0  0  0  0  0  0  0
    6.0167    2.7985    0.0000 C   0  0  0  0  0  0  0  0  0  0  0  0
    8.4420    2.7985    0.0000 N   0  0  0  0  0  0  0  0  0  0  0  0
    9.6080    2.0988    0.0000 O   0  0  0  0  0  0  0  0  0  0  0  0
    8.4420    4.1977    0.0000 O   0  0  0  0  0  0  0  0  0  0  0  0
  1  2  2  0
  2  3  1  0
  3  4  2  0
  4  5  1  0
  5  6  2  0
  1  6  1  0
  4  7  1  0
  7  8  1  0
  8  9  2  0
  5  9  1  0
  8 10  1  0
 10 11  2  0
 11 12  1  0
 12 13  2  0
  9 13  1  0
 12 14  1  0
 14 15  1  0
 14 16  2  0
M  CHG  2  14   1  15  -1
M  END
>  <Compound Name>  (85) 
2-nitrodibenzofuran

>  <Formula>  (85) 
C12H7NO3

>  <LogP>  (85) 
3.83

>  <LUMO>  (85) 
-1.488

>  <MOL_ID>  (85) 
87

>  <Activity>  (85) 
1.64

$$$$
4-nitroacetophenone
     RDKit          2D

 12 12  0  0  0  0  0  0  0  0999 V2000
    2.0533    1.2133    0.0000 C   0  0  0  0  0  0  0  0  0  0  0  0
    2.7533    0.0000    0.0000 C   0  0  0  0  0  0  0  0  0  0  0  0
    4.1533    0.0000    0.0000 C   0  0  0  0  0  0  0  0  0  0  0  0
    4.8533    1.2133    0.0000 C   0  0  0  0  0  0  0  0  0  0  0  0
    4.1533    2.4267    0.0000 C   0  0  0  0  0  0  0  0  0  0  0  0
    2.7533    2.4267    0.0000 C   0  0  0  0  0  0  0  0  0  0  0  0
    6.2533    1.2133    0.0000 C   0  0  0  0  0  0  0  0  0  0  0  0
    6.2533    2.6133    0.0000 O   0  0  0  0  0  0  0  0  0  0  0  0
    7.6534    1.2133    0.0000 C   0  0  0  0  0  0  0  0  0  0  0  0
    0.6533    1.2133    0.0000 N   0  0  0  0  0  0  0  0  0  0  0  0
    0.0000    2.4267    0.0000 O   0  0  0  0  0  0  0  0  0  0  0  0
    0.0000    0.0000    0.0000 O   0  0  0  0  0  0  0  0  0  0  0  0
  1  2  2  0
  2  3  1  0
  3  4  2  0
  4  5  1  0
  5  6  2  0
  1  6  1  0
  4  7  1  0
  7  8  2  0
  7  9  1  0
  1 10  1  0
 10 11  1  0
 10 12  2  0
M  CHG  2  10   1  11  -1
M  END
>  <Compound Name>  (86) 
4-nitroacetophenone

>  <Formula>  (86) 
C8H7NO3

>  <LogP>  (86) 
1.53

>  <LUMO>  (86) 
-1.605

>  <MOL_ID>  (86) 
88

>  <Activity>  (86) 
-1.54

$$$$
1-methyl-7-nitroindazole
     RDKit          2D

 13 14  0  0  0  0  0  0  0  0999 V2000
   -0.0000    4.2000    0.0000 C   0  0  0  0  0  0  0  0  0  0  0  0
   -0.0000    2.8000    0.0000 C   0  0  0  0  0  0  0  0  0  0  0  0
    1.1667    2.1000    0.0000 C   0  0  0  0  0  0  0  0  0  0  0  0
    2.3800    2.8000    0.0000 C   0  0  0  0  0  0  0  0  0  0  0  0
    2.3800    4.2000    0.0000 C   0  0  0  0  0  0  0  0  0  0  0  0
    1.1667    4.8533    0.0000 C   0  0  0  0  0  0  0  0  0  0  0  0
    3.7333    2.3800    0.0000 N   0  0  0  0  0  0  0  0  0  0  0  0
    4.5267    3.5000    0.0000 N   0  0  0  0  0  0  0  0  0  0  0  0
    3.7333    4.6200    0.0000 C   0  0  0  0  0  0  0  0  0  0  0  0
    4.0600    1.0267    0.0000 C   0  0  0  0  0  0  0  0  0  0  0  0
    1.1667    0.7000    0.0000 N   0  0  0  0  0  0  0  0  0  0  0  0
   -0.0000   -0.0000    0.0000 O   0  0  0  0  0  0  0  0  0  0  0  0
    2.3800   -0.0000    0.0000 O   0  0  0  0  0  0  0  0  0  0  0  0
  1  2  2  0
  2  3  1  0
  3  4  2  0
  4  5  1  0
  5  6  2  0
  1  6  1  0
  4  7  1  0
  7  8  1  0
  8  9  2  0
  5  9  1  0
  7 10  1  0
  3 11  1  0
 11 12  1  0
 11 13  2  0
M  CHG  2  11   1  12  -1
M  END
>  <Compound Name>  (87) 
1-methyl-7-nitroindazole

>  <Formula>  (87) 
C8H8N3O2

>  <LogP>  (87) 
1.77

>  <LUMO>  (87) 
-1.028

>  <MOL_ID>  (87) 
89

>  <Activity>  (87) 
-1

$$$$
1-nitrobenzo[e]pyrene
     RDKit          2D

 23 27  0  0  0  0  0  0  0  0999 V2000
    0.0000    6.3000    0.0000 C   0  0  0  0  0  0  0  0  0  0  0  0
    0.0000    4.9000    0.0000 C   0  0  0  0  0  0  0  0  0  0  0  0
    1.1667    4.2000    0.0000 C   0  0  0  0  0  0  0  0  0  0  0  0
    2.3800    4.9000    0.0000 C   0  0  0  0  0  0  0  0  0  0  0  0
    2.3800    6.3000    0.0000 C   0  0  0  0  0  0  0  0  0  0  0  0
    1.1667    6.9533    0.0000 C   0  0  0  0  0  0  0  0  0  0  0  0
    1.1667    2.8000    0.0000 C   0  0  0  0  0  0  0  0  0  0  0  0
    2.3800    2.1000    0.0000 C   0  0  0  0  0  0  0  0  0  0  0  0
    3.5933    2.8000    0.0000 C   0  0  0  0  0  0  0  0  0  0  0  0
    3.5933    4.2000    0.0000 C   0  0  0  0  0  0  0  0  0  0  0  0
    0.0000    2.1000    0.0000 C   0  0  0  0  0  0  0  0  0  0  0  0
    0.0000    0.7000    0.0000 C   0  0  0  0  0  0  0  0  0  0  0  0
    1.1667   -0.0000    0.0000 C   0  0  0  0  0  0  0  0  0  0  0  0
    2.3800    0.7000    0.0000 C   0  0  0  0  0  0  0  0  0  0  0  0
    4.8066    2.1000    0.0000 C   0  0  0  0  0  0  0  0  0  0  0  0
    6.0200    2.8000    0.0000 C   0  0  0  0  0  0  0  0  0  0  0  0
    6.0200    4.2000    0.0000 C   0  0  0  0  0  0  0  0  0  0  0  0
    4.8066    4.9000    0.0000 C   0  0  0  0  0  0  0  0  0  0  0  0
    3.5933   -0.0000    0.0000 C   0  0  0  0  0  0  0  0  0  0  0  0
    4.8066    0.7000    0.0000 C   0  0  0  0  0  0  0  0  0  0  0  0
    4.8066    6.3000    0.0000 N   0  0  0  0  0  0  0  0  0  0  0  0
    6.0200    6.9533    0.0000 O   0  0  0  0  0  0  0  0  0  0  0  0
    3.5933    6.9533    0.0000 O   0  0  0  0  0  0  0  0  0  0  0  0
  1  2  2  0
  2  3  1  0
  3  4  2  0
  4  5  1  0
  5  6  2  0
  1  6  1  0
  3  7  1  0
  7  8  2  0
  8  9  1  0
  9 10  2  0
  4 10  1  0
  7 11  1  0
 11 12  2  0
 12 13  1  0
 13 14  2  0
  8 14  1  0
  9 15  1  0
 15 16  2  0
 16 17  1  0
 17 18  2  0
 10 18  1  0
 14 19  1  0
 19 20  2  0
 15 20  1  0
 18 21  1  0
 21 22  1  0
 21 23  2  0
M  CHG  2  21   1  22  -1
M  END
>  <Compound Name>  (88) 
1-nitrobenzo[e]pyrene

>  <Formula>  (88) 
C20H11NO2

>  <LogP>  (88) 
5.87

>  <LUMO>  (88) 
-1.62

>  <MOL_ID>  (88) 
90

>  <Activity>  (88) 
1.59

$$$$
trans-7,8-dihydro-3-nitrobenzo[a]pyrene-7,8-diol
     RDKit          2D

 25 29  0  0  0  0  0  0  0  0999 V2000
    1.1194    3.4981    0.0000 C   0  0  0  0  0  0  0  0  0  0  0  0
    1.1194    2.0988    0.0000 C   0  0  0  0  0  0  0  0  0  0  0  0
    2.3320    1.3992    0.0000 C   0  0  0  0  0  0  0  0  0  0  0  0
    3.5447    2.0988    0.0000 C   0  0  0  0  0  0  0  0  0  0  0  0
    3.5447    3.4981    0.0000 C   0  0  0  0  0  0  0  0  0  0  0  0
    2.3320    4.1977    0.0000 C   0  0  0  0  0  0  0  0  0  0  0  0
    4.7573    1.3992    0.0000 C   0  0  0  0  0  0  0  0  0  0  0  0
    5.9700    2.0988    0.0000 C   0  0  0  0  0  0  0  0  0  0  0  0
    5.9700    3.4981    0.0000 C   0  0  0  0  0  0  0  0  0  0  0  0
    4.7573    4.1977    0.0000 C   0  0  0  0  0  0  0  0  0  0  0  0
    7.1827    1.3992    0.0000 C   0  0  0  0  0  0  0  0  0  0  0  0
    8.3953    2.0988    0.0000 C   0  0  0  0  0  0  0  0  0  0  0  0
    8.3953    3.4981    0.0000 C   0  0  0  0  0  0  0  0  0  0  0  0
    7.1827    4.1977    0.0000 C   0  0  0  0  0  0  0  0  0  0  0  0
    7.1827    5.5969    0.0000 C   0  0  0  0  0  0  0  0  0  0  0  0
    5.9700    6.2965    0.0000 C   0  0  0  0  0  0  0  0  0  0  0  0
    4.7573    5.5969    0.0000 C   0  0  0  0  0  0  0  0  0  0  0  0
    9.6080    4.1977    0.0000 C   0  0  0  0  0  0  0  0  0  0  0  0
    9.6080    5.5969    0.0000 C   0  0  0  0  0  0  0  0  0  0  0  0
    8.3953    6.2965    0.0000 C   0  0  0  0  0  0  0  0  0  0  0  0
    0.0000    1.3992    0.0000 O   0  0  0  0  0  0  0  0  0  0  0  0
    2.3320    0.0000    0.0000 O   0  0  0  0  0  0  0  0  0  0  0  0
   10.8207    3.4981    0.0000 N   0  0  0  0  0  0  0  0  0  0  0  0
   10.8207    2.0988    0.0000 O   0  0  0  0  0  0  0  0  0  0  0  0
   12.0333    4.1977    0.0000 O   0  0  0  0  0  0  0  0  0  0  0  0
  1  2  1  0
  2  3  1  0
  3  4  1  0
  4  5  2  0
  5  6  1  0
  1  6  2  0
  4  7  1  0
  7  8  2  0
  8  9  1  0
  9 10  2  0
  5 10  1  0
  8 11  1  0
 11 12  2  0
 12 13  1  0
 13 14  2  0
  9 14  1  0
 14 15  1  0
 15 16  1  0
 16 17  2  0
 10 17  1  0
 13 18  1  0
 18 19  2  0
 19 20  1  0
 15 20  2  0
  2 21  1  6
  3 22  1  1
 18 23  1  0
 23 24  1  0
 23 25  2  0
M  CHG  2  23   1  24  -1
M  END
>  <Compound Name>  (89) 
trans-7,8-dihydro-3-nitrobenzo[a]pyrene-7,8-diol

>  <Formula>  (89) 
C20H13NO4

>  <LogP>  (89) 
3.01

>  <LUMO>  (89) 
-2.032

>  <MOL_ID>  (89) 
91

>  <Activity>  (89) 
3.08

$$$$
2-nitro-4,5,9,10-tetrahydropyrene
     RDKit          2D

 19 22  0  0  0  0  0  0  0  0999 V2000
    1.0261   -0.0000    0.0000 C   0  0  0  0  0  0  0  0  0  0  0  0
    2.2388    0.6996    0.0000 C   0  0  0  0  0  0  0  0  0  0  0  0
    2.2388    2.0988    0.0000 C   0  0  0  0  0  0  0  0  0  0  0  0
    1.0261    2.7984    0.0000 C   0  0  0  0  0  0  0  0  0  0  0  0
    0.0000    2.0988    0.0000 C   0  0  0  0  0  0  0  0  0  0  0  0
    0.0000    0.6996    0.0000 C   0  0  0  0  0  0  0  0  0  0  0  0
    3.4514    2.7984    0.0000 C   0  0  0  0  0  0  0  0  0  0  0  0
    3.4514    4.1977    0.0000 C   0  0  0  0  0  0  0  0  0  0  0  0
    2.2388    4.8973    0.0000 C   0  0  0  0  0  0  0  0  0  0  0  0
    1.0261    4.1977    0.0000 C   0  0  0  0  0  0  0  0  0  0  0  0
    3.4514   -0.0000    0.0000 C   0  0  0  0  0  0  0  0  0  0  0  0
    4.6641    0.6996    0.0000 C   0  0  0  0  0  0  0  0  0  0  0  0
    4.6641    2.0988    0.0000 C   0  0  0  0  0  0  0  0  0  0  0  0
    5.8767    2.7984    0.0000 C   0  0  0  0  0  0  0  0  0  0  0  0
    5.8767    4.1977    0.0000 C   0  0  0  0  0  0  0  0  0  0  0  0
    4.6641    4.8973    0.0000 C   0  0  0  0  0  0  0  0  0  0  0  0
    7.0894    4.8973    0.0000 N   0  0  0  0  0  0  0  0  0  0  0  0
    8.3021    4.1977    0.0000 O   0  0  0  0  0  0  0  0  0  0  0  0
    7.0894    6.1099    0.0000 O   0  0  0  0  0  0  0  0  0  0  0  0
  1  2  2  0
  2  3  1  0
  3  4  2  0
  4  5  1  0
  5  6  2  0
  1  6  1  0
  3  7  1  0
  7  8  2  0
  8  9  1  0
  9 10  1  0
  4 10  1  0
  2 11  1  0
 11 12  1  0
 12 13  1  0
  7 13  1  0
 13 14  2  0
 14 15  1  0
 15 16  2  0
  8 16  1  0
 15 17  1  0
 17 18  1  0
 17 19  2  0
M  CHG  2  17   1  18  -1
M  END
>  <Compound Name>  (90) 
2-nitro-4,5,9,10-tetrahydropyrene

>  <Formula>  (90) 
C16H13NO2

>  <LogP>  (90) 
5.28

>  <LUMO>  (90) 
-1.208

>  <MOL_ID>  (90) 
92

>  <Activity>  (90) 
1.58

$$$$
3-nitrobenzo[e]pyrene
     RDKit          2D

 23 27  0  0  0  0  0  0  0  0999 V2000
    2.3800    6.3466    0.0000 C   0  0  0  0  0  0  0  0  0  0  0  0
    1.1667    7.0000    0.0000 C   0  0  0  0  0  0  0  0  0  0  0  0
   -0.0000    6.3466    0.0000 C   0  0  0  0  0  0  0  0  0  0  0  0
   -0.0000    4.9466    0.0000 C   0  0  0  0  0  0  0  0  0  0  0  0
    1.1667    4.2467    0.0000 C   0  0  0  0  0  0  0  0  0  0  0  0
    2.3800    4.9466    0.0000 C   0  0  0  0  0  0  0  0  0  0  0  0
    1.1667    2.8467    0.0000 C   0  0  0  0  0  0  0  0  0  0  0  0
    2.3800    2.1467    0.0000 C   0  0  0  0  0  0  0  0  0  0  0  0
    3.5933    2.8467    0.0000 C   0  0  0  0  0  0  0  0  0  0  0  0
    3.5933    4.2467    0.0000 C   0  0  0  0  0  0  0  0  0  0  0  0
   -0.0000    2.1467    0.0000 C   0  0  0  0  0  0  0  0  0  0  0  0
   -0.0000    0.7467    0.0000 C   0  0  0  0  0  0  0  0  0  0  0  0
    1.1667   -0.0000    0.0000 C   0  0  0  0  0  0  0  0  0  0  0  0
    2.3800    0.7467    0.0000 C   0  0  0  0  0  0  0  0  0  0  0  0
    4.8066    2.1467    0.0000 C   0  0  0  0  0  0  0  0  0  0  0  0
    6.0200    2.8467    0.0000 C   0  0  0  0  0  0  0  0  0  0  0  0
    6.0200    4.2467    0.0000 C   0  0  0  0  0  0  0  0  0  0  0  0
    4.8066    4.9466    0.0000 C   0  0  0  0  0  0  0  0  0  0  0  0
    3.5933   -0.0000    0.0000 C   0  0  0  0  0  0  0  0  0  0  0  0
    4.8066    0.7467    0.0000 C   0  0  0  0  0  0  0  0  0  0  0  0
    7.2333    2.1467    0.0000 N   0  0  0  0  0  0  0  0  0  0  0  0
    7.2333    0.7467    0.0000 O   0  0  0  0  0  0  0  0  0  0  0  0
    8.4466    2.8467    0.0000 O   0  0  0  0  0  0  0  0  0  0  0  0
  1  2  2  0
  2  3  1  0
  3  4  2  0
  4  5  1  0
  5  6  2  0
  1  6  1  0
  5  7  1  0
  7  8  2  0
  8  9  1  0
  9 10  2  0
  6 10  1  0
  7 11  1  0
 11 12  2  0
 12 13  1  0
 13 14  2  0
  8 14  1  0
  9 15  1  0
 15 16  2  0
 16 17  1  0
 17 18  2  0
 10 18  1  0
 14 19  1  0
 19 20  2  0
 15 20  1  0
 16 21  1  0
 21 22  1  0
 21 23  2  0
M  CHG  2  21   1  22  -1
M  END
>  <Compound Name>  (91) 
3-nitrobenzo[e]pyrene

>  <Formula>  (91) 
C20H11NO2

>  <LogP>  (91) 
5.87

>  <LUMO>  (91) 
-1.729

>  <MOL_ID>  (91) 
93

>  <Activity>  (91) 
2.95

$$$$
4-nitropyrene
     RDKit          2D

 19 22  0  0  0  0  0  0  0  0999 V2000
    0.0000    3.4981    0.0000 C   0  0  0  0  0  0  0  0  0  0  0  0
    0.0000    2.0988    0.0000 C   0  0  0  0  0  0  0  0  0  0  0  0
    1.1660    1.3992    0.0000 C   0  0  0  0  0  0  0  0  0  0  0  0
    2.3787    2.0988    0.0000 C   0  0  0  0  0  0  0  0  0  0  0  0
    2.3787    3.4981    0.0000 C   0  0  0  0  0  0  0  0  0  0  0  0
    1.1660    4.1977    0.0000 C   0  0  0  0  0  0  0  0  0  0  0  0
    3.5913    4.1977    0.0000 C   0  0  0  0  0  0  0  0  0  0  0  0
    3.5913    5.5969    0.0000 C   0  0  0  0  0  0  0  0  0  0  0  0
    2.3787    6.2965    0.0000 C   0  0  0  0  0  0  0  0  0  0  0  0
    1.1660    5.5969    0.0000 C   0  0  0  0  0  0  0  0  0  0  0  0
    3.5913    1.3992    0.0000 C   0  0  0  0  0  0  0  0  0  0  0  0
    4.8040    2.0988    0.0000 C   0  0  0  0  0  0  0  0  0  0  0  0
    4.8040    3.4981    0.0000 C   0  0  0  0  0  0  0  0  0  0  0  0
    5.9700    4.1977    0.0000 C   0  0  0  0  0  0  0  0  0  0  0  0
    5.9700    5.5969    0.0000 C   0  0  0  0  0  0  0  0  0  0  0  0
    4.8040    6.2965    0.0000 C   0  0  0  0  0  0  0  0  0  0  0  0
    6.0167    1.3992    0.0000 N   0  0  0  0  0  0  0  0  0  0  0  0
    6.0167   -0.0000    0.0000 O   0  0  0  0  0  0  0  0  0  0  0  0
    7.2293    2.0988    0.0000 O   0  0  0  0  0  0  0  0  0  0  0  0
  1  2  2  0
  2  3  1  0
  3  4  2  0
  4  5  1  0
  5  6  2  0
  1  6  1  0
  5  7  1  0
  7  8  2  0
  8  9  1  0
  9 10  2  0
  6 10  1  0
  4 11  1  0
 11 12  2  0
 12 13  1  0
  7 13  1  0
 13 14  2  0
 14 15  1  0
 15 16  2  0
  8 16  1  0
 12 17  1  0
 17 18  1  0
 17 19  2  0
M  CHG  2  17   1  18  -1
M  END
>  <Compound Name>  (92) 
4-nitropyrene

>  <Formula>  (92) 
C16H9NO2

>  <LogP>  (92) 
4.69

>  <LUMO>  (92) 
-1.585

>  <MOL_ID>  (92) 
94

>  <Activity>  (92) 
3.39

$$$$
2,3,5-trinitronaphthalene
     RDKit          2D

 19 20  0  0  0  0  0  0  0  0999 V2000
   -0.0000    4.1977    0.0000 C   0  0  0  0  0  0  0  0  0  0  0  0
   -0.0000    2.7985    0.0000 C   0  0  0  0  0  0  0  0  0  0  0  0
    1.1660    2.0988    0.0000 C   0  0  0  0  0  0  0  0  0  0  0  0
    2.3787    2.7985    0.0000 C   0  0  0  0  0  0  0  0  0  0  0  0
    2.3787    4.1977    0.0000 C   0  0  0  0  0  0  0  0  0  0  0  0
    1.1660    4.8973    0.0000 C   0  0  0  0  0  0  0  0  0  0  0  0
    3.5913    2.0988    0.0000 C   0  0  0  0  0  0  0  0  0  0  0  0
    4.8040    2.7985    0.0000 C   0  0  0  0  0  0  0  0  0  0  0  0
    4.8040    4.1977    0.0000 C   0  0  0  0  0  0  0  0  0  0  0  0
    3.5913    4.8973    0.0000 C   0  0  0  0  0  0  0  0  0  0  0  0
    6.0167    4.8973    0.0000 N   0  0  0  0  0  0  0  0  0  0  0  0
    7.2293    4.1977    0.0000 O   0  0  0  0  0  0  0  0  0  0  0  0
    6.0167    6.2965    0.0000 O   0  0  0  0  0  0  0  0  0  0  0  0
    6.0167    2.0988    0.0000 N   0  0  0  0  0  0  0  0  0  0  0  0
    6.0167    0.6996    0.0000 O   0  0  0  0  0  0  0  0  0  0  0  0
    7.2293    2.7985    0.0000 O   0  0  0  0  0  0  0  0  0  0  0  0
    1.1660    0.6996    0.0000 N   0  0  0  0  0  0  0  0  0  0  0  0
   -0.0000   -0.0000    0.0000 O   0  0  0  0  0  0  0  0  0  0  0  0
    2.3787   -0.0000    0.0000 O   0  0  0  0  0  0  0  0  0  0  0  0
  1  2  2  0
  2  3  1  0
  3  4  2  0
  4  5  1  0
  5  6  2  0
  1  6  1  0
  4  7  1  0
  7  8  2  0
  8  9  1  0
  9 10  2  0
  5 10  1  0
  9 11  1  0
 11 12  1  0
 11 13  2  0
  8 14  1  0
 14 15  1  0
 14 16  2  0
  3 17  1  0
 17 18  1  0
 17 19  2  0
M  CHG  6  11   1  12  -1  14   1  15  -1  17   1  18  -1
M  END
>  <Compound Name>  (93) 
2,3,5-trinitronaphthalene

>  <Formula>  (93) 
C10H5N3O6

>  <LogP>  (93) 
2.55

>  <LUMO>  (93) 
-2.434

>  <MOL_ID>  (93) 
95

>  <Activity>  (93) 
1.51

$$$$
1,3,6-trinitropyrene
     RDKit          2D

 25 28  0  0  0  0  0  0  0  0999 V2000
    1.1660    2.0989    0.0000 C   0  0  0  0  0  0  0  0  0  0  0  0
    2.3787    2.7985    0.0000 C   0  0  0  0  0  0  0  0  0  0  0  0
    2.3787    4.1977    0.0000 C   0  0  0  0  0  0  0  0  0  0  0  0
    1.1660    4.8973    0.0000 C   0  0  0  0  0  0  0  0  0  0  0  0
   -0.0000    4.1977    0.0000 C   0  0  0  0  0  0  0  0  0  0  0  0
   -0.0000    2.7985    0.0000 C   0  0  0  0  0  0  0  0  0  0  0  0
    3.5914    4.8973    0.0000 C   0  0  0  0  0  0  0  0  0  0  0  0
    3.5914    6.2966    0.0000 C   0  0  0  0  0  0  0  0  0  0  0  0
    2.3787    6.9962    0.0000 C   0  0  0  0  0  0  0  0  0  0  0  0
    1.1660    6.2966    0.0000 C   0  0  0  0  0  0  0  0  0  0  0  0
    3.5914    2.0989    0.0000 C   0  0  0  0  0  0  0  0  0  0  0  0
    4.8040    2.7985    0.0000 C   0  0  0  0  0  0  0  0  0  0  0  0
    4.8040    4.1977    0.0000 C   0  0  0  0  0  0  0  0  0  0  0  0
    6.0167    4.8973    0.0000 C   0  0  0  0  0  0  0  0  0  0  0  0
    6.0167    6.2966    0.0000 C   0  0  0  0  0  0  0  0  0  0  0  0
    4.8040    6.9962    0.0000 C   0  0  0  0  0  0  0  0  0  0  0  0
    4.8040    8.3954    0.0000 N   0  0  0  0  0  0  0  0  0  0  0  0
    6.0167    9.0950    0.0000 O   0  0  0  0  0  0  0  0  0  0  0  0
    3.5914    9.0950    0.0000 O   0  0  0  0  0  0  0  0  0  0  0  0
    7.2294    4.1977    0.0000 N   0  0  0  0  0  0  0  0  0  0  0  0
    7.2294    2.7985    0.0000 O   0  0  0  0  0  0  0  0  0  0  0  0
    8.4420    4.8973    0.0000 O   0  0  0  0  0  0  0  0  0  0  0  0
    1.1660    0.6996    0.0000 N   0  0  0  0  0  0  0  0  0  0  0  0
   -0.0000    0.0000    0.0000 O   0  0  0  0  0  0  0  0  0  0  0  0
    2.3787    0.0000    0.0000 O   0  0  0  0  0  0  0  0  0  0  0  0
  1  2  2  0
  2  3  1  0
  3  4  2  0
  4  5  1  0
  5  6  2  0
  1  6  1  0
  3  7  1  0
  7  8  2  0
  8  9  1  0
  9 10  2  0
  4 10  1  0
  2 11  1  0
 11 12  2  0
 12 13  1  0
  7 13  1  0
 13 14  2  0
 14 15  1  0
 15 16  2  0
  8 16  1  0
 16 17  1  0
 17 18  1  0
 17 19  2  0
 14 20  1  0
 20 21  1  0
 20 22  2  0
  1 23  1  0
 23 24  1  0
 23 25  2  0
M  CHG  6  17   1  18  -1  20   1  21  -1  23   1  24  -1
M  END
>  <Compound Name>  (94) 
1,3,6-trinitropyrene

>  <Formula>  (94) 
C16H7N3O6

>  <LogP>  (94) 
4.18

>  <LUMO>  (94) 
-2.871

>  <MOL_ID>  (94) 
96

>  <Activity>  (94) 
4.99

$$$$
2-methoxy-7-nitrofluorene
     RDKit          2D

 18 20  0  0  0  0  0  0  0  0999 V2000
    2.3320    3.4981    0.0000 C   0  0  0  0  0  0  0  0  0  0  0  0
    2.3320    2.0988    0.0000 C   0  0  0  0  0  0  0  0  0  0  0  0
    3.5447    1.3992    0.0000 C   0  0  0  0  0  0  0  0  0  0  0  0
    4.7574    2.0988    0.0000 C   0  0  0  0  0  0  0  0  0  0  0  0
    4.7574    3.4981    0.0000 C   0  0  0  0  0  0  0  0  0  0  0  0
    3.5447    4.1510    0.0000 C   0  0  0  0  0  0  0  0  0  0  0  0
    5.9700    1.3992    0.0000 C   0  0  0  0  0  0  0  0  0  0  0  0
    7.1827    2.0988    0.0000 C   0  0  0  0  0  0  0  0  0  0  0  0
    7.1827    3.4981    0.0000 C   0  0  0  0  0  0  0  0  0  0  0  0
    8.3953    1.3992    0.0000 C   0  0  0  0  0  0  0  0  0  0  0  0
    9.6080    2.0988    0.0000 C   0  0  0  0  0  0  0  0  0  0  0  0
    9.6080    3.4981    0.0000 C   0  0  0  0  0  0  0  0  0  0  0  0
    8.3953    4.1510    0.0000 C   0  0  0  0  0  0  0  0  0  0  0  0
   10.8207    1.3992    0.0000 O   0  0  0  0  0  0  0  0  0  0  0  0
   12.0333    2.0988    0.0000 C   0  0  0  0  0  0  0  0  0  0  0  0
    1.1194    1.3992    0.0000 N   0  0  0  0  0  0  0  0  0  0  0  0
    0.0000    2.0988    0.0000 O   0  0  0  0  0  0  0  0  0  0  0  0
    1.1194   -0.0000    0.0000 O   0  0  0  0  0  0  0  0  0  0  0  0
  1  2  2  0
  2  3  1  0
  3  4  2  0
  4  5  1  0
  5  6  2  0
  1  6  1  0
  4  7  1  0
  7  8  1  0
  8  9  2  0
  5  9  1  0
  8 10  1  0
 10 11  2  0
 11 12  1  0
 12 13  2  0
  9 13  1  0
 11 14  1  0
 14 15  1  0
  2 16  1  0
 16 17  1  0
 16 18  2  0
M  CHG  2  16   1  17  -1
M  END
>  <Compound Name>  (95) 
2-methoxy-7-nitrofluorene

>  <Formula>  (95) 
C14H11NO3

>  <LogP>  (95) 
3.95

>  <LUMO>  (95) 
-1.361

>  <MOL_ID>  (95) 
97

>  <Activity>  (95) 
2.79

$$$$
5-nitroisoquinoline
     RDKit          2D

 13 14  0  0  0  0  0  0  0  0999 V2000
    1.1660    0.0000    0.0000 C   0  0  0  0  0  0  0  0  0  0  0  0
    2.3787    0.6996    0.0000 C   0  0  0  0  0  0  0  0  0  0  0  0
    2.3787    2.0989    0.0000 C   0  0  0  0  0  0  0  0  0  0  0  0
    1.1660    2.7985    0.0000 C   0  0  0  0  0  0  0  0  0  0  0  0
   -0.0000    2.0989    0.0000 C   0  0  0  0  0  0  0  0  0  0  0  0
   -0.0000    0.6996    0.0000 C   0  0  0  0  0  0  0  0  0  0  0  0
    3.5914    0.0000    0.0000 C   0  0  0  0  0  0  0  0  0  0  0  0
    4.8040    0.6996    0.0000 N   0  0  0  0  0  0  0  0  0  0  0  0
    4.8040    2.0989    0.0000 C   0  0  0  0  0  0  0  0  0  0  0  0
    3.5914    2.7985    0.0000 C   0  0  0  0  0  0  0  0  0  0  0  0
    1.1660    4.1977    0.0000 N   0  0  0  0  0  0  0  0  0  0  0  0
    2.3787    4.8507    0.0000 O   0  0  0  0  0  0  0  0  0  0  0  0
   -0.0000    4.8507    0.0000 O   0  0  0  0  0  0  0  0  0  0  0  0
  1  2  2  0
  2  3  1  0
  3  4  2  0
  4  5  1  0
  5  6  2  0
  1  6  1  0
  2  7  1  0
  7  8  2  0
  8  9  1  0
  9 10  2  0
  3 10  1  0
  4 11  1  0
 11 12  1  0
 11 13  2  0
M  CHG  2  11   1  12  -1
M  END
>  <Compound Name>  (96) 
5-nitroisoquinoline

>  <Formula>  (96) 
C9H6N2O2

>  <LogP>  (96) 
1.65

>  <LUMO>  (96) 
-1.598

>  <MOL_ID>  (96) 
98

>  <Activity>  (96) 
-1.55

$$$$
1-nitroacenaphthylene
     RDKit          2D

 15 17  0  0  0  0  0  0  0  0999 V2000
    3.4981    2.0988    0.0000 C   0  0  0  0  0  0  0  0  0  0  0  0
    3.4981    0.6996    0.0000 C   0  0  0  0  0  0  0  0  0  0  0  0
    4.7107   -0.0000    0.0000 C   0  0  0  0  0  0  0  0  0  0  0  0
    5.9234    0.6996    0.0000 C   0  0  0  0  0  0  0  0  0  0  0  0
    5.9234    2.0988    0.0000 C   0  0  0  0  0  0  0  0  0  0  0  0
    4.7107    2.7985    0.0000 C   0  0  0  0  0  0  0  0  0  0  0  0
    2.2854    2.7985    0.0000 C   0  0  0  0  0  0  0  0  0  0  0  0
    1.0727    2.0988    0.0000 C   0  0  0  0  0  0  0  0  0  0  0  0
    1.0727    0.6996    0.0000 C   0  0  0  0  0  0  0  0  0  0  0  0
    2.2854   -0.0000    0.0000 C   0  0  0  0  0  0  0  0  0  0  0  0
    4.7107    4.1977    0.0000 C   0  0  0  0  0  0  0  0  0  0  0  0
    2.2854    4.1977    0.0000 C   0  0  0  0  0  0  0  0  0  0  0  0
    1.3059    5.1771    0.0000 N   0  0  0  0  0  0  0  0  0  0  0  0
    1.6791    6.4831    0.0000 O   0  0  0  0  0  0  0  0  0  0  0  0
    0.0000    4.8040    0.0000 O   0  0  0  0  0  0  0  0  0  0  0  0
  1  2  1  0
  2  3  2  0
  3  4  1  0
  4  5  2  0
  5  6  1  0
  1  6  2  0
  1  7  1  0
  7  8  2  0
  8  9  1  0
  9 10  2  0
  2 10  1  0
  6 11  1  0
  7 12  1  0
 11 12  2  0
 12 13  1  0
 13 14  1  0
 13 15  2  0
M  CHG  2  13   1  14  -1
M  END
>  <Compound Name>  (97) 
1-nitroacenaphthylene

>  <Formula>  (97) 
C12H7NO2

>  <LogP>  (97) 
2.72

>  <LUMO>  (97) 
-2.159

>  <MOL_ID>  (97) 
99

>  <Activity>  (97) 
1.77

$$$$
3-amino-3'-nitrobiphenyl
     RDKit          2D

 16 17  0  0  0  0  0  0  0  0999 V2000
    0.6533    2.4266    0.0000 C   0  0  0  0  0  0  0  0  0  0  0  0
    0.0000    1.2133    0.0000 C   0  0  0  0  0  0  0  0  0  0  0  0
    0.6533   -0.0000    0.0000 C   0  0  0  0  0  0  0  0  0  0  0  0
    2.0533   -0.0000    0.0000 C   0  0  0  0  0  0  0  0  0  0  0  0
    2.7533    1.2133    0.0000 C   0  0  0  0  0  0  0  0  0  0  0  0
    2.0533    2.4266    0.0000 C   0  0  0  0  0  0  0  0  0  0  0  0
    4.1533    1.2133    0.0000 C   0  0  0  0  0  0  0  0  0  0  0  0
    4.8533   -0.0000    0.0000 C   0  0  0  0  0  0  0  0  0  0  0  0
    6.2533   -0.0000    0.0000 C   0  0  0  0  0  0  0  0  0  0  0  0
    6.9533    1.2133    0.0000 C   0  0  0  0  0  0  0  0  0  0  0  0
    6.2533    2.4266    0.0000 C   0  0  0  0  0  0  0  0  0  0  0  0
    4.8533    2.4266    0.0000 C   0  0  0  0  0  0  0  0  0  0  0  0
    0.0000    3.6400    0.0000 N   0  0  0  0  0  0  0  0  0  0  0  0
    6.9533    3.6400    0.0000 N   0  0  0  0  0  0  0  0  0  0  0  0
    8.3533    3.6400    0.0000 O   0  0  0  0  0  0  0  0  0  0  0  0
    6.2533    4.8066    0.0000 O   0  0  0  0  0  0  0  0  0  0  0  0
  1  2  2  0
  2  3  1  0
  3  4  2  0
  4  5  1  0
  5  6  2  0
  1  6  1  0
  5  7  1  0
  7  8  2  0
  8  9  1  0
  9 10  2  0
 10 11  1  0
 11 12  2  0
  7 12  1  0
  1 13  1  0
 11 14  1  0
 14 15  1  0
 14 16  2  0
M  CHG  2  14   1  15  -1
M  END
>  <Compound Name>  (98) 
3-amino-3'-nitrobiphenyl

>  <Formula>  (98) 
C12H10N2O2

>  <LogP>  (98) 
2.68

>  <LUMO>  (98) 
-1.034

>  <MOL_ID>  (98) 
100

>  <Activity>  (98) 
-1.7

$$$$
3-nitro-9,10,11,12-tetrahydrobenzo[e]pyrene
     RDKit          2D

 23 27  0  0  0  0  0  0  0  0999 V2000
    2.3800    6.3466    0.0000 C   0  0  0  0  0  0  0  0  0  0  0  0
    1.1667    7.0000    0.0000 C   0  0  0  0  0  0  0  0  0  0  0  0
   -0.0000    6.3466    0.0000 C   0  0  0  0  0  0  0  0  0  0  0  0
   -0.0000    4.9466    0.0000 C   0  0  0  0  0  0  0  0  0  0  0  0
    1.1667    4.2467    0.0000 C   0  0  0  0  0  0  0  0  0  0  0  0
    2.3800    4.9466    0.0000 C   0  0  0  0  0  0  0  0  0  0  0  0
    1.1667    2.8467    0.0000 C   0  0  0  0  0  0  0  0  0  0  0  0
    2.3800    2.1467    0.0000 C   0  0  0  0  0  0  0  0  0  0  0  0
    3.5933    2.8467    0.0000 C   0  0  0  0  0  0  0  0  0  0  0  0
    3.5933    4.2467    0.0000 C   0  0  0  0  0  0  0  0  0  0  0  0
   -0.0000    2.1467    0.0000 C   0  0  0  0  0  0  0  0  0  0  0  0
   -0.0000    0.7467    0.0000 C   0  0  0  0  0  0  0  0  0  0  0  0
    1.1667   -0.0000    0.0000 C   0  0  0  0  0  0  0  0  0  0  0  0
    2.3800    0.7467    0.0000 C   0  0  0  0  0  0  0  0  0  0  0  0
    4.8066    2.1467    0.0000 C   0  0  0  0  0  0  0  0  0  0  0  0
    6.0200    2.8467    0.0000 C   0  0  0  0  0  0  0  0  0  0  0  0
    6.0200    4.2467    0.0000 C   0  0  0  0  0  0  0  0  0  0  0  0
    4.8066    4.9466    0.0000 C   0  0  0  0  0  0  0  0  0  0  0  0
    3.5933   -0.0000    0.0000 C   0  0  0  0  0  0  0  0  0  0  0  0
    4.8066    0.7467    0.0000 C   0  0  0  0  0  0  0  0  0  0  0  0
    7.2333    2.1467    0.0000 N   0  0  0  0  0  0  0  0  0  0  0  0
    7.2333    0.7467    0.0000 O   0  0  0  0  0  0  0  0  0  0  0  0
    8.4466    2.8467    0.0000 O   0  0  0  0  0  0  0  0  0  0  0  0
  1  2  1  0
  2  3  1  0
  3  4  1  0
  4  5  1  0
  5  6  2  0
  1  6  1  0
  5  7  1  0
  7  8  2  0
  8  9  1  0
  9 10  2  0
  6 10  1  0
  7 11  1  0
 11 12  2  0
 12 13  1  0
 13 14  2  0
  8 14  1  0
  9 15  1  0
 15 16  2  0
 16 17  1  0
 17 18  2  0
 10 18  1  0
 14 19  1  0
 19 20  2  0
 15 20  1  0
 16 21  1  0
 21 22  1  0
 21 23  2  0
M  CHG  2  21   1  22  -1
M  END
>  <Compound Name>  (99) 
3-nitro-9,10,11,12-tetrahydrobenzo[e]pyrene

>  <Formula>  (99) 
C20H15NO2

>  <LogP>  (99) 
6.26

>  <LUMO>  (99) 
-1.598

>  <MOL_ID>  (99) 
101

>  <Activity>  (99) 
0.78

$$$$
2,4,5,7-tetranitro-9-fluorenone
     RDKit          2D

 26 28  0  0  0  0  0  0  0  0999 V2000
    2.3787    3.4981    0.0000 C   0  0  0  0  0  0  0  0  0  0  0  0
    2.3787    2.0988    0.0000 C   0  0  0  0  0  0  0  0  0  0  0  0
    3.5913    1.3992    0.0000 C   0  0  0  0  0  0  0  0  0  0  0  0
    4.8040    2.0988    0.0000 C   0  0  0  0  0  0  0  0  0  0  0  0
    4.8040    3.4981    0.0000 C   0  0  0  0  0  0  0  0  0  0  0  0
    3.5913    4.1977    0.0000 C   0  0  0  0  0  0  0  0  0  0  0  0
    6.0167    1.3992    0.0000 C   0  0  0  0  0  0  0  0  0  0  0  0
    7.2293    2.0988    0.0000 C   0  0  0  0  0  0  0  0  0  0  0  0
    7.2293    3.4981    0.0000 C   0  0  0  0  0  0  0  0  0  0  0  0
    8.4420    1.3992    0.0000 C   0  0  0  0  0  0  0  0  0  0  0  0
    9.6546    2.0988    0.0000 C   0  0  0  0  0  0  0  0  0  0  0  0
    9.6546    3.4981    0.0000 C   0  0  0  0  0  0  0  0  0  0  0  0
    8.4420    4.1977    0.0000 C   0  0  0  0  0  0  0  0  0  0  0  0
    6.0167   -0.0000    0.0000 O   0  0  0  0  0  0  0  0  0  0  0  0
   10.8673    1.3992    0.0000 N   0  0  0  0  0  0  0  0  0  0  0  0
   10.8673   -0.0000    0.0000 O   0  0  0  0  0  0  0  0  0  0  0  0
   12.0800    2.0988    0.0000 O   0  0  0  0  0  0  0  0  0  0  0  0
    8.4420    5.5969    0.0000 N   0  0  0  0  0  0  0  0  0  0  0  0
    9.6546    6.2965    0.0000 O   0  0  0  0  0  0  0  0  0  0  0  0
    7.2293    6.2965    0.0000 O   0  0  0  0  0  0  0  0  0  0  0  0
    3.5913    5.5969    0.0000 N   0  0  0  0  0  0  0  0  0  0  0  0
    4.8040    6.2965    0.0000 O   0  0  0  0  0  0  0  0  0  0  0  0
    2.3787    6.2965    0.0000 O   0  0  0  0  0  0  0  0  0  0  0  0
    1.1660    1.3992    0.0000 N   0  0  0  0  0  0  0  0  0  0  0  0
    0.0000    2.0988    0.0000 O   0  0  0  0  0  0  0  0  0  0  0  0
    1.1660   -0.0000    0.0000 O   0  0  0  0  0  0  0  0  0  0  0  0
  1  2  2  0
  2  3  1  0
  3  4  2  0
  4  5  1  0
  5  6  2  0
  1  6  1  0
  4  7  1  0
  7  8  1  0
  8  9  2  0
  5  9  1  0
  8 10  1  0
 10 11  2  0
 11 12  1  0
 12 13  2  0
  9 13  1  0
  7 14  2  0
 11 15  1  0
 15 16  1  0
 15 17  2  0
 13 18  1  0
 18 19  1  0
 18 20  2  0
  6 21  1  0
 21 22  1  0
 21 23  2  0
  2 24  1  0
 24 25  1  0
 24 26  2  0
M  CHG  8  15   1  16  -1  18   1  19  -1  21   1  22  -1  24   1  25  -1
M  END
>  <Compound Name>  (100) 
2,4,5,7-tetranitro-9-fluorenone

>  <Formula>  (100) 
C13H4N4O9

>  <LogP>  (100) 
2.4

>  <LUMO>  (100) 
-3.172

>  <MOL_ID>  (100) 
102

>  <Activity>  (100) 
2.93

$$$$
2-nitropyrene
     RDKit          2D

 19 22  0  0  0  0  0  0  0  0999 V2000
   -0.0000    2.0988    0.0000 C   0  0  0  0  0  0  0  0  0  0  0  0
   -0.0000    0.6996    0.0000 C   0  0  0  0  0  0  0  0  0  0  0  0
    1.1660   -0.0000    0.0000 C   0  0  0  0  0  0  0  0  0  0  0  0
    2.3787    0.6996    0.0000 C   0  0  0  0  0  0  0  0  0  0  0  0
    2.3787    2.0988    0.0000 C   0  0  0  0  0  0  0  0  0  0  0  0
    1.1660    2.7985    0.0000 C   0  0  0  0  0  0  0  0  0  0  0  0
    3.5913   -0.0000    0.0000 C   0  0  0  0  0  0  0  0  0  0  0  0
    4.8040    0.6996    0.0000 C   0  0  0  0  0  0  0  0  0  0  0  0
    4.8040    2.0988    0.0000 C   0  0  0  0  0  0  0  0  0  0  0  0
    3.5913    2.7985    0.0000 C   0  0  0  0  0  0  0  0  0  0  0  0
    3.5913    4.1977    0.0000 C   0  0  0  0  0  0  0  0  0  0  0  0
    2.3787    4.8973    0.0000 C   0  0  0  0  0  0  0  0  0  0  0  0
    1.1660    4.1977    0.0000 C   0  0  0  0  0  0  0  0  0  0  0  0
    6.0167    2.7985    0.0000 C   0  0  0  0  0  0  0  0  0  0  0  0
    6.0167    4.1977    0.0000 C   0  0  0  0  0  0  0  0  0  0  0  0
    4.8040    4.8973    0.0000 C   0  0  0  0  0  0  0  0  0  0  0  0
    7.2293    4.8973    0.0000 N   0  0  0  0  0  0  0  0  0  0  0  0
    8.4420    4.1977    0.0000 O   0  0  0  0  0  0  0  0  0  0  0  0
    7.2293    6.2965    0.0000 O   0  0  0  0  0  0  0  0  0  0  0  0
  1  2  2  0
  2  3  1  0
  3  4  2  0
  4  5  1  0
  5  6  2  0
  1  6  1  0
  4  7  1  0
  7  8  2  0
  8  9  1  0
  9 10  2  0
  5 10  1  0
 10 11  1  0
 11 12  1  0
 12 13  2  0
  6 13  1  0
  9 14  1  0
 14 15  2  0
 15 16  1  0
 11 16  2  0
 15 17  1  0
 17 18  1  0
 17 19  2  0
M  CHG  2  17   1  18  -1
M  END
>  <Compound Name>  (101) 
2-nitropyrene

>  <Formula>  (101) 
C16H9NO2

>  <LogP>  (101) 
4.69

>  <LUMO>  (101) 
-1.487

>  <MOL_ID>  (101) 
103

>  <Activity>  (101) 
3.35

$$$$
1-nitro-9,10,11,12-tetrahydrobenzo[e]pyrene
     RDKit          2D

 23 27  0  0  0  0  0  0  0  0999 V2000
    2.3333    2.1000    0.0000 C   0  0  0  0  0  0  0  0  0  0  0  0
    2.3333    0.7000    0.0000 C   0  0  0  0  0  0  0  0  0  0  0  0
    3.5467   -0.0000    0.0000 C   0  0  0  0  0  0  0  0  0  0  0  0
    4.7600    0.7000    0.0000 C   0  0  0  0  0  0  0  0  0  0  0  0
    4.7600    2.1000    0.0000 C   0  0  0  0  0  0  0  0  0  0  0  0
    3.5467    2.8000    0.0000 C   0  0  0  0  0  0  0  0  0  0  0  0
    1.1200    2.8000    0.0000 C   0  0  0  0  0  0  0  0  0  0  0  0
   -0.0000    2.1000    0.0000 C   0  0  0  0  0  0  0  0  0  0  0  0
   -0.0000    0.7000    0.0000 C   0  0  0  0  0  0  0  0  0  0  0  0
    1.1200   -0.0000    0.0000 C   0  0  0  0  0  0  0  0  0  0  0  0
    2.3333    4.9000    0.0000 C   0  0  0  0  0  0  0  0  0  0  0  0
    3.5467    4.2000    0.0000 C   0  0  0  0  0  0  0  0  0  0  0  0
    1.1200    4.2000    0.0000 C   0  0  0  0  0  0  0  0  0  0  0  0
    5.9733    2.8000    0.0000 C   0  0  0  0  0  0  0  0  0  0  0  0
    5.9733    4.2000    0.0000 C   0  0  0  0  0  0  0  0  0  0  0  0
    4.7600    4.9000    0.0000 C   0  0  0  0  0  0  0  0  0  0  0  0
    2.3333    6.3000    0.0000 C   0  0  0  0  0  0  0  0  0  0  0  0
    1.1200    6.9533    0.0000 C   0  0  0  0  0  0  0  0  0  0  0  0
   -0.0000    6.3000    0.0000 C   0  0  0  0  0  0  0  0  0  0  0  0
   -0.0000    4.9000    0.0000 C   0  0  0  0  0  0  0  0  0  0  0  0
    4.7600    6.3000    0.0000 N   0  0  0  0  0  0  0  0  0  0  0  0
    5.9733    6.9533    0.0000 O   0  0  0  0  0  0  0  0  0  0  0  0
    3.5467    6.9533    0.0000 O   0  0  0  0  0  0  0  0  0  0  0  0
  1  2  1  0
  2  3  2  0
  3  4  1  0
  4  5  2  0
  5  6  1  0
  1  6  2  0
  1  7  1  0
  7  8  2  0
  8  9  1  0
  9 10  2  0
  2 10  1  0
 11 12  1  0
 11 13  2  0
  7 13  1  0
  6 12  1  0
  5 14  1  0
 14 15  2  0
 15 16  1  0
 12 16  2  0
 11 17  1  0
 17 18  1  0
 18 19  1  0
 19 20  1  0
 13 20  1  0
 16 21  1  0
 21 22  1  0
 21 23  2  0
M  CHG  2  21   1  22  -1
M  END
>  <Compound Name>  (102) 
1-nitro-9,10,11,12-tetrahydrobenzo[e]pyrene

>  <Formula>  (102) 
C20H15NO2

>  <LogP>  (102) 
6.26

>  <LUMO>  (102) 
-1.546

>  <MOL_ID>  (102) 
104

>  <Activity>  (102) 
0.7

$$$$
5-nitro-1,10-phenanthroline
     RDKit          2D

 17 19  0  0  0  0  0  0  0  0999 V2000
    0.6530    2.4253    0.0000 C   0  0  0  0  0  0  0  0  0  0  0  0
    0.0000    1.2127    0.0000 C   0  0  0  0  0  0  0  0  0  0  0  0
    0.6530   -0.0000    0.0000 C   0  0  0  0  0  0  0  0  0  0  0  0
    2.0522   -0.0000    0.0000 N   0  0  0  0  0  0  0  0  0  0  0  0
    2.7518    1.2127    0.0000 C   0  0  0  0  0  0  0  0  0  0  0  0
    2.0522    2.4253    0.0000 C   0  0  0  0  0  0  0  0  0  0  0  0
    4.1511    1.2127    0.0000 C   0  0  0  0  0  0  0  0  0  0  0  0
    4.8507    2.4253    0.0000 C   0  0  0  0  0  0  0  0  0  0  0  0
    4.1511    3.6380    0.0000 C   0  0  0  0  0  0  0  0  0  0  0  0
    2.7518    3.6380    0.0000 C   0  0  0  0  0  0  0  0  0  0  0  0
    4.8507   -0.0000    0.0000 N   0  0  0  0  0  0  0  0  0  0  0  0
    6.2499   -0.0000    0.0000 C   0  0  0  0  0  0  0  0  0  0  0  0
    6.9962    1.2127    0.0000 C   0  0  0  0  0  0  0  0  0  0  0  0
    6.2499    2.4253    0.0000 C   0  0  0  0  0  0  0  0  0  0  0  0
    4.8507    4.8507    0.0000 N   0  0  0  0  0  0  0  0  0  0  0  0
    6.2499    4.8507    0.0000 O   0  0  0  0  0  0  0  0  0  0  0  0
    4.1511    6.0633    0.0000 O   0  0  0  0  0  0  0  0  0  0  0  0
  1  2  2  0
  2  3  1  0
  3  4  2  0
  4  5  1  0
  5  6  2  0
  1  6  1  0
  5  7  1  0
  7  8  2  0
  8  9  1  0
  9 10  2  0
  6 10  1  0
  7 11  1  0
 11 12  2  0
 12 13  1  0
 13 14  2  0
  8 14  1  0
  9 15  1  0
 15 16  1  0
 15 17  2  0
M  CHG  2  15   1  16  -1
M  END
>  <Compound Name>  (103) 
5-nitro-1,10-phenanthroline

>  <Formula>  (103) 
C12H7N3O2

>  <LogP>  (103) 
1.84

>  <LUMO>  (103) 
-1.749

>  <MOL_ID>  (103) 
105

>  <Activity>  (103) 
0.59

$$$$
10-hydroxy-1-nitropyrene
     RDKit          2D

 20 23  0  0  0  0  0  0  0  0999 V2000
    2.3787    2.0988    0.0000 C   0  0  0  0  0  0  0  0  0  0  0  0
    2.3787    0.6996    0.0000 C   0  0  0  0  0  0  0  0  0  0  0  0
    3.5913   -0.0000    0.0000 C   0  0  0  0  0  0  0  0  0  0  0  0
    4.8040    0.6996    0.0000 C   0  0  0  0  0  0  0  0  0  0  0  0
    4.8040    2.0988    0.0000 C   0  0  0  0  0  0  0  0  0  0  0  0
    3.5913    2.7984    0.0000 C   0  0  0  0  0  0  0  0  0  0  0  0
    1.1660    2.7984    0.0000 C   0  0  0  0  0  0  0  0  0  0  0  0
    0.0000    2.0988    0.0000 C   0  0  0  0  0  0  0  0  0  0  0  0
    0.0000    0.6996    0.0000 C   0  0  0  0  0  0  0  0  0  0  0  0
    1.1660   -0.0000    0.0000 C   0  0  0  0  0  0  0  0  0  0  0  0
    3.5913    4.1977    0.0000 C   0  0  0  0  0  0  0  0  0  0  0  0
    2.3787    4.8973    0.0000 C   0  0  0  0  0  0  0  0  0  0  0  0
    1.1660    4.1977    0.0000 C   0  0  0  0  0  0  0  0  0  0  0  0
    6.0167    2.7984    0.0000 C   0  0  0  0  0  0  0  0  0  0  0  0
    6.0167    4.1977    0.0000 C   0  0  0  0  0  0  0  0  0  0  0  0
    4.8040    4.8973    0.0000 C   0  0  0  0  0  0  0  0  0  0  0  0
    2.3787    6.2499    0.0000 O   0  0  0  0  0  0  0  0  0  0  0  0
    4.8040    6.2499    0.0000 N   0  0  0  0  0  0  0  0  0  0  0  0
    6.0167    6.9028    0.0000 O   0  0  0  0  0  0  0  0  0  0  0  0
    3.5913    6.9028    0.0000 O   0  0  0  0  0  0  0  0  0  0  0  0
  1  2  1  0
  2  3  2  0
  3  4  1  0
  4  5  2  0
  5  6  1  0
  1  6  2  0
  1  7  1  0
  7  8  2  0
  8  9  1  0
  9 10  2  0
  2 10  1  0
  6 11  1  0
 11 12  1  0
 12 13  2  0
  7 13  1  0
  5 14  1  0
 14 15  2  0
 15 16  1  0
 11 16  2  0
 12 17  1  0
 16 18  1  0
 18 19  1  0
 18 20  2  0
M  CHG  2  18   1  19  -1
M  END
>  <Compound Name>  (104) 
10-hydroxy-1-nitropyrene

>  <Formula>  (104) 
C16H9NO3

>  <LogP>  (104) 
4.34

>  <LUMO>  (104) 
-1.607

>  <MOL_ID>  (104) 
106

>  <Activity>  (104) 
1.89

$$$$
2,3,5-trinitrofluoranthene
     RDKit          2D

 25 28  0  0  0  0  0  0  0  0999 V2000
    4.8040    4.1977    0.0000 C   0  0  0  0  0  0  0  0  0  0  0  0
    4.8040    2.7984    0.0000 C   0  0  0  0  0  0  0  0  0  0  0  0
    6.0166    2.0988    0.0000 C   0  0  0  0  0  0  0  0  0  0  0  0
    7.2293    2.7984    0.0000 C   0  0  0  0  0  0  0  0  0  0  0  0
    7.2293    4.1977    0.0000 C   0  0  0  0  0  0  0  0  0  0  0  0
    6.0166    4.8973    0.0000 C   0  0  0  0  0  0  0  0  0  0  0  0
    3.5913    4.8973    0.0000 C   0  0  0  0  0  0  0  0  0  0  0  0
    2.3787    4.1977    0.0000 C   0  0  0  0  0  0  0  0  0  0  0  0
    2.3787    2.7984    0.0000 C   0  0  0  0  0  0  0  0  0  0  0  0
    3.5913    2.0988    0.0000 C   0  0  0  0  0  0  0  0  0  0  0  0
    5.5036    6.2965    0.0000 C   0  0  0  0  0  0  0  0  0  0  0  0
    4.0577    6.2965    0.0000 C   0  0  0  0  0  0  0  0  0  0  0  0
    6.2499    7.5558    0.0000 C   0  0  0  0  0  0  0  0  0  0  0  0
    5.5036    8.8151    0.0000 C   0  0  0  0  0  0  0  0  0  0  0  0
    4.0577    8.8151    0.0000 C   0  0  0  0  0  0  0  0  0  0  0  0
    3.3581    7.5558    0.0000 C   0  0  0  0  0  0  0  0  0  0  0  0
    8.4420    2.0988    0.0000 N   0  0  0  0  0  0  0  0  0  0  0  0
    8.4420    0.6996    0.0000 O   0  0  0  0  0  0  0  0  0  0  0  0
    9.6546    2.7984    0.0000 O   0  0  0  0  0  0  0  0  0  0  0  0
    6.0166    0.6996    0.0000 N   0  0  0  0  0  0  0  0  0  0  0  0
    4.8040    0.0000    0.0000 O   0  0  0  0  0  0  0  0  0  0  0  0
    7.2293    0.0000    0.0000 O   0  0  0  0  0  0  0  0  0  0  0  0
    1.1660    2.0988    0.0000 N   0  0  0  0  0  0  0  0  0  0  0  0
   -0.0000    2.7984    0.0000 O   0  0  0  0  0  0  0  0  0  0  0  0
    1.1660    0.6996    0.0000 O   0  0  0  0  0  0  0  0  0  0  0  0
  1  2  1  0
  2  3  2  0
  3  4  1  0
  4  5  2  0
  5  6  1  0
  1  6  2  0
  1  7  1  0
  7  8  2  0
  8  9  1  0
  9 10  2  0
  2 10  1  0
  6 11  1  0
  7 12  1  0
 11 12  2  0
 11 13  1  0
 13 14  2  0
 14 15  1  0
 15 16  2  0
 12 16  1  0
  4 17  1  0
 17 18  1  0
 17 19  2  0
  3 20  1  0
 20 21  1  0
 20 22  2  0
  9 23  1  0
 23 24  1  0
 23 25  2  0
M  CHG  6  17   1  18  -1  20   1  21  -1  23   1  24  -1
M  END
>  <Compound Name>  (105) 
2,3,5-trinitrofluoranthene

>  <Formula>  (105) 
C16H7N3O6

>  <LogP>  (105) 
4.18

>  <LUMO>  (105) 
-2.791

>  <MOL_ID>  (105) 
107

>  <Activity>  (105) 
3.44

$$$$
3-nitrofluoranthene
     RDKit          2D

 19 22  0  0  0  0  0  0  0  0999 V2000
    2.3787    4.1977    0.0000 C   0  0  0  0  0  0  0  0  0  0  0  0
    2.3787    2.7984    0.0000 C   0  0  0  0  0  0  0  0  0  0  0  0
    3.5913    2.0988    0.0000 C   0  0  0  0  0  0  0  0  0  0  0  0
    4.8040    2.7984    0.0000 C   0  0  0  0  0  0  0  0  0  0  0  0
    4.8040    4.1977    0.0000 C   0  0  0  0  0  0  0  0  0  0  0  0
    3.5913    4.8973    0.0000 C   0  0  0  0  0  0  0  0  0  0  0  0
    1.1660    4.8973    0.0000 C   0  0  0  0  0  0  0  0  0  0  0  0
   -0.0000    4.1977    0.0000 C   0  0  0  0  0  0  0  0  0  0  0  0
   -0.0000    2.7984    0.0000 C   0  0  0  0  0  0  0  0  0  0  0  0
    1.1660    2.0988    0.0000 C   0  0  0  0  0  0  0  0  0  0  0  0
    3.0783    6.2965    0.0000 C   0  0  0  0  0  0  0  0  0  0  0  0
    1.6324    6.2965    0.0000 C   0  0  0  0  0  0  0  0  0  0  0  0
    3.8245    7.5558    0.0000 C   0  0  0  0  0  0  0  0  0  0  0  0
    3.0783    8.7684    0.0000 C   0  0  0  0  0  0  0  0  0  0  0  0
    1.6324    8.7684    0.0000 C   0  0  0  0  0  0  0  0  0  0  0  0
    0.9328    7.5558    0.0000 C   0  0  0  0  0  0  0  0  0  0  0  0
    3.5913    0.6996    0.0000 N   0  0  0  0  0  0  0  0  0  0  0  0
    2.3787    0.0000    0.0000 O   0  0  0  0  0  0  0  0  0  0  0  0
    4.8040    0.0000    0.0000 O   0  0  0  0  0  0  0  0  0  0  0  0
  1  2  1  0
  2  3  2  0
  3  4  1  0
  4  5  2  0
  5  6  1  0
  1  6  2  0
  1  7  1  0
  7  8  2  0
  8  9  1  0
  9 10  2  0
  2 10  1  0
  6 11  1  0
  7 12  1  0
 11 12  2  0
 11 13  1  0
 13 14  2  0
 14 15  1  0
 15 16  2  0
 12 16  1  0
  3 17  1  0
 17 18  1  0
 17 19  2  0
M  CHG  2  17   1  18  -1
M  END
>  <Compound Name>  (106) 
3-nitrofluoranthene

>  <Formula>  (106) 
C16H9NO2

>  <LogP>  (106) 
4.69

>  <LUMO>  (106) 
-1.676

>  <MOL_ID>  (106) 
108

>  <Activity>  (106) 
3.67

$$$$
5,10-dinitrobenzo[ghi]perylene
     RDKit          2D

 28 33  0  0  0  0  0  0  0  0999 V2000
    2.0522    3.6380    0.0000 C   0  0  0  0  0  0  0  0  0  0  0  0
    2.7518    2.4253    0.0000 C   0  0  0  0  0  0  0  0  0  0  0  0
    4.1511    2.4253    0.0000 C   0  0  0  0  0  0  0  0  0  0  0  0
    4.8507    3.6380    0.0000 C   0  0  0  0  0  0  0  0  0  0  0  0
    4.1511    4.8507    0.0000 C   0  0  0  0  0  0  0  0  0  0  0  0
    2.7518    4.8507    0.0000 C   0  0  0  0  0  0  0  0  0  0  0  0
    6.2499    3.6380    0.0000 C   0  0  0  0  0  0  0  0  0  0  0  0
    6.9495    4.8507    0.0000 C   0  0  0  0  0  0  0  0  0  0  0  0
    6.2499    6.0633    0.0000 C   0  0  0  0  0  0  0  0  0  0  0  0
    4.8507    6.0633    0.0000 C   0  0  0  0  0  0  0  0  0  0  0  0
    6.9495    2.4253    0.0000 C   0  0  0  0  0  0  0  0  0  0  0  0
    8.3488    2.4253    0.0000 C   0  0  0  0  0  0  0  0  0  0  0  0
    9.0484    3.6380    0.0000 C   0  0  0  0  0  0  0  0  0  0  0  0
    8.3488    4.8507    0.0000 C   0  0  0  0  0  0  0  0  0  0  0  0
    4.8507    1.2127    0.0000 C   0  0  0  0  0  0  0  0  0  0  0  0
    6.2499    1.2127    0.0000 C   0  0  0  0  0  0  0  0  0  0  0  0
    6.9495   -0.0000    0.0000 C   0  0  0  0  0  0  0  0  0  0  0  0
    8.3488   -0.0000    0.0000 C   0  0  0  0  0  0  0  0  0  0  0  0
    9.0484    1.2127    0.0000 C   0  0  0  0  0  0  0  0  0  0  0  0
    2.0522    1.2127    0.0000 C   0  0  0  0  0  0  0  0  0  0  0  0
    2.7518   -0.0000    0.0000 C   0  0  0  0  0  0  0  0  0  0  0  0
    4.1511   -0.0000    0.0000 C   0  0  0  0  0  0  0  0  0  0  0  0
   10.4476    1.2127    0.0000 N   0  0  0  0  0  0  0  0  0  0  0  0
   11.1472   -0.0000    0.0000 O   0  0  0  0  0  0  0  0  0  0  0  0
   11.1472    2.4253    0.0000 O   0  0  0  0  0  0  0  0  0  0  0  0
    0.6530    1.2127    0.0000 N   0  0  0  0  0  0  0  0  0  0  0  0
   -0.0000    2.4253    0.0000 O   0  0  0  0  0  0  0  0  0  0  0  0
   -0.0000   -0.0000    0.0000 O   0  0  0  0  0  0  0  0  0  0  0  0
  1  2  2  0
  2  3  1  0
  3  4  2  0
  4  5  1  0
  5  6  2  0
  1  6  1  0
  4  7  1  0
  7  8  2  0
  8  9  1  0
  9 10  2  0
  5 10  1  0
  7 11  1  0
 11 12  1  0
 12 13  1  0
 13 14  2  0
  8 14  1  0
  3 15  1  0
 15 16  1  0
 11 16  2  0
 16 17  1  0
 17 18  2  0
 18 19  1  0
 12 19  2  0
  2 20  1  0
 20 21  2  0
 21 22  1  0
 15 22  2  0
 19 23  1  0
 23 24  1  0
 23 25  2  0
 20 26  1  0
 26 27  1  0
 26 28  2  0
M  CHG  4  23   1  24  -1  26   1  27  -1
M  END
>  <Compound Name>  (107) 
5,10-dinitrobenzo[ghi]perylene

>  <Formula>  (107) 
C22H10N2O4

>  <LogP>  (107) 
6.07

>  <LUMO>  (107) 
-2.284

>  <MOL_ID>  (107) 
109

>  <Activity>  (107) 
3.6

$$$$
2,4,2',6'-tetranitrobiphenyl
     RDKit          2D

 24 25  0  0  0  0  0  0  0  0999 V2000
    0.6533    4.8533    0.0000 C   0  0  0  0  0  0  0  0  0  0  0  0
   -0.0000    3.6400    0.0000 C   0  0  0  0  0  0  0  0  0  0  0  0
    0.6533    2.4267    0.0000 C   0  0  0  0  0  0  0  0  0  0  0  0
    2.0533    2.4267    0.0000 C   0  0  0  0  0  0  0  0  0  0  0  0
    2.7533    3.6400    0.0000 C   0  0  0  0  0  0  0  0  0  0  0  0
    2.0533    4.8533    0.0000 C   0  0  0  0  0  0  0  0  0  0  0  0
    4.1533    3.6400    0.0000 C   0  0  0  0  0  0  0  0  0  0  0  0
    4.8533    2.4267    0.0000 C   0  0  0  0  0  0  0  0  0  0  0  0
    6.2533    2.4267    0.0000 C   0  0  0  0  0  0  0  0  0  0  0  0
    6.9533    3.6400    0.0000 C   0  0  0  0  0  0  0  0  0  0  0  0
    6.2533    4.8533    0.0000 C   0  0  0  0  0  0  0  0  0  0  0  0
    4.8533    4.8533    0.0000 C   0  0  0  0  0  0  0  0  0  0  0  0
    8.3533    3.6400    0.0000 N   0  0  0  0  0  0  0  0  0  0  0  0
    9.0533    2.4267    0.0000 O   0  0  0  0  0  0  0  0  0  0  0  0
    9.0533    4.8533    0.0000 O   0  0  0  0  0  0  0  0  0  0  0  0
    2.7533    1.2133    0.0000 N   0  0  0  0  0  0  0  0  0  0  0  0
    2.0533    0.0000    0.0000 O   0  0  0  0  0  0  0  0  0  0  0  0
    4.1533    1.2133    0.0000 O   0  0  0  0  0  0  0  0  0  0  0  0
    2.0533    6.2533    0.0000 N   0  0  0  0  0  0  0  0  0  0  0  0
    2.7533    6.8600    0.0000 O   0  0  0  0  0  0  0  0  0  0  0  0
    0.8400    6.9533    0.0000 O   0  0  0  0  0  0  0  0  0  0  0  0
    4.8533    6.1600    0.0000 N   0  0  0  0  0  0  0  0  0  0  0  0
    5.8333    6.9066    0.0000 O   0  0  0  0  0  0  0  0  0  0  0  0
    3.8733    6.9533    0.0000 O   0  0  0  0  0  0  0  0  0  0  0  0
  1  2  2  0
  2  3  1  0
  3  4  2  0
  4  5  1  0
  5  6  2  0
  1  6  1  0
  5  7  1  0
  7  8  2  0
  8  9  1  0
  9 10  2  0
 10 11  1  0
 11 12  2  0
  7 12  1  0
 10 13  1  0
 13 14  1  0
 13 15  2  0
  4 16  1  0
 16 17  1  0
 16 18  2  0
  6 19  1  0
 19 20  1  0
 19 21  2  0
 12 22  1  0
 22 23  1  0
 22 24  2  0
M  CHG  8  13   1  14  -1  16   1  17  -1  19   1  20  -1  22   1  23  -1
M  END
>  <Compound Name>  (108) 
2,4,2',6'-tetranitrobiphenyl

>  <Formula>  (108) 
C12H6N4O8

>  <LogP>  (108) 
3

>  <LUMO>  (108) 
-2.14

>  <MOL_ID>  (108) 
110

>  <Activity>  (108) 
-0.07

$$$$
4-nitrobenzaldehyde
     RDKit          2D

 11 11  0  0  0  0  0  0  0  0999 V2000
    2.7533   -0.0000    0.0000 C   0  0  0  0  0  0  0  0  0  0  0  0
    4.1533   -0.0000    0.0000 C   0  0  0  0  0  0  0  0  0  0  0  0
    4.8533    1.2133    0.0000 C   0  0  0  0  0  0  0  0  0  0  0  0
    4.1533    2.3800    0.0000 C   0  0  0  0  0  0  0  0  0  0  0  0
    2.7533    2.3800    0.0000 C   0  0  0  0  0  0  0  0  0  0  0  0
    2.0533    1.2133    0.0000 C   0  0  0  0  0  0  0  0  0  0  0  0
    6.2533    1.2133    0.0000 C   0  0  0  0  0  0  0  0  0  0  0  0
    7.0467    2.3800    0.0000 O   0  0  0  0  0  0  0  0  0  0  0  0
    0.6533    1.2133    0.0000 N   0  0  0  0  0  0  0  0  0  0  0  0
    0.0000    2.3800    0.0000 O   0  0  0  0  0  0  0  0  0  0  0  0
    0.0000   -0.0000    0.0000 O   0  0  0  0  0  0  0  0  0  0  0  0
  1  2  2  0
  2  3  1  0
  3  4  2  0
  4  5  1  0
  5  6  2  0
  1  6  1  0
  3  7  1  0
  7  8  2  0
  6  9  1  0
  9 10  1  0
  9 11  2  0
M  CHG  2   9   1  10  -1
M  END
>  <Compound Name>  (109) 
4-nitrobenzaldehyde

>  <Formula>  (109) 
C7H5NO3

>  <LogP>  (109) 
1.56

>  <LUMO>  (109) 
-1.687

>  <MOL_ID>  (109) 
111

>  <Activity>  (109) 
-1.64

$$$$
3-nitroacenaphthene
     RDKit          2D

 15 17  0  0  0  0  0  0  0  0999 V2000
    2.3787    2.0988    0.0000 C   0  0  0  0  0  0  0  0  0  0  0  0
    2.3787    0.6996    0.0000 C   0  0  0  0  0  0  0  0  0  0  0  0
    3.5913    0.0000    0.0000 C   0  0  0  0  0  0  0  0  0  0  0  0
    4.8040    0.6996    0.0000 C   0  0  0  0  0  0  0  0  0  0  0  0
    4.8040    2.0988    0.0000 C   0  0  0  0  0  0  0  0  0  0  0  0
    3.5913    2.7985    0.0000 C   0  0  0  0  0  0  0  0  0  0  0  0
    1.1660    2.7985    0.0000 C   0  0  0  0  0  0  0  0  0  0  0  0
   -0.0000    2.0988    0.0000 C   0  0  0  0  0  0  0  0  0  0  0  0
   -0.0000    0.6996    0.0000 C   0  0  0  0  0  0  0  0  0  0  0  0
    1.1660    0.0000    0.0000 C   0  0  0  0  0  0  0  0  0  0  0  0
    3.5913    4.1977    0.0000 C   0  0  0  0  0  0  0  0  0  0  0  0
    1.1660    4.1977    0.0000 C   0  0  0  0  0  0  0  0  0  0  0  0
    6.0167    2.7985    0.0000 N   0  0  0  0  0  0  0  0  0  0  0  0
    7.2293    2.0988    0.0000 O   0  0  0  0  0  0  0  0  0  0  0  0
    6.0167    4.1977    0.0000 O   0  0  0  0  0  0  0  0  0  0  0  0
  1  2  1  0
  2  3  2  0
  3  4  1  0
  4  5  2  0
  5  6  1  0
  1  6  2  0
  1  7  1  0
  7  8  2  0
  8  9  1  0
  9 10  2  0
  2 10  1  0
  6 11  1  0
  7 12  1  0
 11 12  1  0
  5 13  1  0
 13 14  1  0
 13 15  2  0
M  CHG  2  13   1  14  -1
M  END
>  <Compound Name>  (110) 
3-nitroacenaphthene

>  <Formula>  (110) 
C12H9NO2

>  <LogP>  (110) 
3.81

>  <LUMO>  (110) 
-1.208

>  <MOL_ID>  (110) 
112

>  <Activity>  (110) 
1

$$$$
2,4-dinitroaniline
     RDKit          2D

 13 13  0  0  0  0  0  0  0  0999 V2000
    2.0533    1.2133    0.0000 C   0  0  0  0  0  0  0  0  0  0  0  0
    2.7533   -0.0000    0.0000 C   0  0  0  0  0  0  0  0  0  0  0  0
    4.1533   -0.0000    0.0000 C   0  0  0  0  0  0  0  0  0  0  0  0
    4.8533    1.2133    0.0000 C   0  0  0  0  0  0  0  0  0  0  0  0
    4.1533    2.4267    0.0000 C   0  0  0  0  0  0  0  0  0  0  0  0
    2.7533    2.4267    0.0000 C   0  0  0  0  0  0  0  0  0  0  0  0
    6.2533    1.2133    0.0000 N   0  0  0  0  0  0  0  0  0  0  0  0
    4.8533    3.6400    0.0000 N   0  0  0  0  0  0  0  0  0  0  0  0
    6.2533    3.6400    0.0000 O   0  0  0  0  0  0  0  0  0  0  0  0
    4.1533    4.8067    0.0000 O   0  0  0  0  0  0  0  0  0  0  0  0
    0.6533    1.2133    0.0000 N   0  0  0  0  0  0  0  0  0  0  0  0
    0.0000    2.4267    0.0000 O   0  0  0  0  0  0  0  0  0  0  0  0
    0.0000   -0.0000    0.0000 O   0  0  0  0  0  0  0  0  0  0  0  0
  1  2  2  0
  2  3  1  0
  3  4  2  0
  4  5  1  0
  5  6  2  0
  1  6  1  0
  4  7  1  0
  5  8  1  0
  8  9  1  0
  8 10  2  0
  1 11  1  0
 11 12  1  0
 11 13  2  0
M  CHG  4   8   1   9  -1  11   1  12  -1
M  END
>  <Compound Name>  (111) 
2,4-dinitroaniline

>  <Formula>  (111) 
C6H5N3O4

>  <LogP>  (111) 
1.84

>  <LUMO>  (111) 
-1.491

>  <MOL_ID>  (111) 
113

>  <Activity>  (111) 
-1.74

$$$$
2-amino-4'-nitrobiphenyl
     RDKit          2D

 16 17  0  0  0  0  0  0  0  0999 V2000
    2.7518    2.4253    0.0000 C   0  0  0  0  0  0  0  0  0  0  0  0
    2.0522    1.2127    0.0000 C   0  0  0  0  0  0  0  0  0  0  0  0
    2.7518    0.0000    0.0000 C   0  0  0  0  0  0  0  0  0  0  0  0
    4.1510    0.0000    0.0000 C   0  0  0  0  0  0  0  0  0  0  0  0
    4.8506    1.2127    0.0000 C   0  0  0  0  0  0  0  0  0  0  0  0
    4.1510    2.4253    0.0000 C   0  0  0  0  0  0  0  0  0  0  0  0
    6.2499    1.2127    0.0000 C   0  0  0  0  0  0  0  0  0  0  0  0
    6.9495    0.0000    0.0000 C   0  0  0  0  0  0  0  0  0  0  0  0
    8.3487    0.0000    0.0000 C   0  0  0  0  0  0  0  0  0  0  0  0
    9.0483    1.2127    0.0000 C   0  0  0  0  0  0  0  0  0  0  0  0
    8.3487    2.4253    0.0000 C   0  0  0  0  0  0  0  0  0  0  0  0
    6.9495    2.4253    0.0000 C   0  0  0  0  0  0  0  0  0  0  0  0
    6.2499    3.6380    0.0000 N   0  0  0  0  0  0  0  0  0  0  0  0
    0.6530    1.2127    0.0000 N   0  0  0  0  0  0  0  0  0  0  0  0
   -0.0000    2.4253    0.0000 O   0  0  0  0  0  0  0  0  0  0  0  0
   -0.0000    0.0000    0.0000 O   0  0  0  0  0  0  0  0  0  0  0  0
  1  2  2  0
  2  3  1  0
  3  4  2  0
  4  5  1  0
  5  6  2  0
  1  6  1  0
  5  7  1  0
  7  8  2  0
  8  9  1  0
  9 10  2  0
 10 11  1  0
 11 12  2  0
  7 12  1  0
 12 13  1  0
  2 14  1  0
 14 15  1  0
 14 16  2  0
M  CHG  2  14   1  15  -1
M  END
>  <Compound Name>  (112) 
2-amino-4'-nitrobiphenyl

>  <Formula>  (112) 
C12H10N2O2

>  <LogP>  (112) 
2.68

>  <LUMO>  (112) 
-1.148

>  <MOL_ID>  (112) 
114

>  <Activity>  (112) 
-1.7

$$$$
5-nitroindene
     RDKit          2D

 12 13  0  0  0  0  0  0  0  0999 V2000
    2.3787    2.0988    0.0000 C   0  0  0  0  0  0  0  0  0  0  0  0
    2.3787    0.6996    0.0000 C   0  0  0  0  0  0  0  0  0  0  0  0
    3.5913    0.0000    0.0000 C   0  0  0  0  0  0  0  0  0  0  0  0
    4.8040    0.6996    0.0000 C   0  0  0  0  0  0  0  0  0  0  0  0
    4.8040    2.0988    0.0000 C   0  0  0  0  0  0  0  0  0  0  0  0
    3.5913    2.7984    0.0000 C   0  0  0  0  0  0  0  0  0  0  0  0
    6.0166    0.0000    0.0000 C   0  0  0  0  0  0  0  0  0  0  0  0
    7.2293    0.6996    0.0000 C   0  0  0  0  0  0  0  0  0  0  0  0
    7.2293    2.0988    0.0000 C   0  0  0  0  0  0  0  0  0  0  0  0
    1.1660    2.7984    0.0000 N   0  0  0  0  0  0  0  0  0  0  0  0
    1.1660    4.1977    0.0000 O   0  0  0  0  0  0  0  0  0  0  0  0
   -0.0000    2.0988    0.0000 O   0  0  0  0  0  0  0  0  0  0  0  0
  1  2  2  0
  2  3  1  0
  3  4  2  0
  4  5  1  0
  5  6  2  0
  1  6  1  0
  4  7  1  0
  7  8  1  0
  8  9  2  0
  5  9  1  0
  1 10  1  0
 10 11  1  0
 10 12  2  0
M  CHG  2  10   1  11  -1
M  END
>  <Compound Name>  (113) 
5-nitroindene

>  <Formula>  (113) 
C9H7NO2

>  <LogP>  (113) 
2.74

>  <LUMO>  (113) 
-1.161

>  <MOL_ID>  (113) 
115

>  <Activity>  (113) 
0.08

$$$$
4-fluoronitrobenzene
     RDKit          2D

 10 10  0  0  0  0  0  0  0  0999 V2000
    1.3533    1.2133    0.0000 C   0  0  0  0  0  0  0  0  0  0  0  0
    2.0533   -0.0000    0.0000 C   0  0  0  0  0  0  0  0  0  0  0  0
    3.4533   -0.0000    0.0000 C   0  0  0  0  0  0  0  0  0  0  0  0
    4.1533    1.2133    0.0000 C   0  0  0  0  0  0  0  0  0  0  0  0
    3.4533    2.3800    0.0000 C   0  0  0  0  0  0  0  0  0  0  0  0
    2.0533    2.3800    0.0000 C   0  0  0  0  0  0  0  0  0  0  0  0
    0.0000    1.2133    0.0000 F   0  0  0  0  0  0  0  0  0  0  0  0
    5.5533    1.2133    0.0000 N   0  0  0  0  0  0  0  0  0  0  0  0
    6.2533   -0.0000    0.0000 O   0  0  0  0  0  0  0  0  0  0  0  0
    6.2533    2.3800    0.0000 O   0  0  0  0  0  0  0  0  0  0  0  0
  1  2  2  0
  2  3  1  0
  3  4  2  0
  4  5  1  0
  5  6  2  0
  1  6  1  0
  1  7  1  0
  4  8  1  0
  8  9  1  0
  8 10  2  0
M  CHG  2   8   1   9  -1
M  END
>  <Compound Name>  (114) 
4-fluoronitrobenzene

>  <Formula>  (114) 
C6H4FNO2

>  <LogP>  (114) 
1.8

>  <LUMO>  (114) 
-1.37

>  <MOL_ID>  (114) 
116

>  <Activity>  (114) 
-0.23

$$$$
2,4,3'-trinitrobiphenyl
     RDKit          2D

 21 22  0  0  0  0  0  0  0  0999 V2000
    2.0522    2.4253    0.0000 C   0  0  0  0  0  0  0  0  0  0  0  0
    1.3526    1.2127    0.0000 C   0  0  0  0  0  0  0  0  0  0  0  0
    2.0522    0.0000    0.0000 C   0  0  0  0  0  0  0  0  0  0  0  0
    3.4514    0.0000    0.0000 C   0  0  0  0  0  0  0  0  0  0  0  0
    4.1510    1.2127    0.0000 C   0  0  0  0  0  0  0  0  0  0  0  0
    3.4514    2.4253    0.0000 C   0  0  0  0  0  0  0  0  0  0  0  0
    5.5502    1.2127    0.0000 C   0  0  0  0  0  0  0  0  0  0  0  0
    6.2499    0.0000    0.0000 C   0  0  0  0  0  0  0  0  0  0  0  0
    7.6491    0.0000    0.0000 C   0  0  0  0  0  0  0  0  0  0  0  0
    8.3487    1.2127    0.0000 C   0  0  0  0  0  0  0  0  0  0  0  0
    7.6491    2.4253    0.0000 C   0  0  0  0  0  0  0  0  0  0  0  0
    6.2499    2.4253    0.0000 C   0  0  0  0  0  0  0  0  0  0  0  0
    5.5502    3.6380    0.0000 N   0  0  0  0  0  0  0  0  0  0  0  0
    6.2499    4.8040    0.0000 O   0  0  0  0  0  0  0  0  0  0  0  0
    4.1510    3.6380    0.0000 O   0  0  0  0  0  0  0  0  0  0  0  0
    9.7479    1.2127    0.0000 N   0  0  0  0  0  0  0  0  0  0  0  0
   10.4475    0.0000    0.0000 O   0  0  0  0  0  0  0  0  0  0  0  0
   10.4475    2.4253    0.0000 O   0  0  0  0  0  0  0  0  0  0  0  0
    1.3526    3.6380    0.0000 N   0  0  0  0  0  0  0  0  0  0  0  0
    2.0522    4.8040    0.0000 O   0  0  0  0  0  0  0  0  0  0  0  0
   -0.0000    3.6380    0.0000 O   0  0  0  0  0  0  0  0  0  0  0  0
  1  2  2  0
  2  3  1  0
  3  4  2  0
  4  5  1  0
  5  6  2  0
  1  6  1  0
  5  7  1  0
  7  8  2  0
  8  9  1  0
  9 10  2  0
 10 11  1  0
 11 12  2  0
  7 12  1  0
 12 13  1  0
 13 14  1  0
 13 15  2  0
 10 16  1  0
 16 17  1  0
 16 18  2  0
  1 19  1  0
 19 20  1  0
 19 21  2  0
M  CHG  6  13   1  14  -1  16   1  17  -1  19   1  20  -1
M  END
>  <Compound Name>  (115) 
2,4,3'-trinitrobiphenyl

>  <Formula>  (115) 
C12H7N3O6

>  <LogP>  (115) 
3.26

>  <LUMO>  (115) 
-2.142

>  <MOL_ID>  (115) 
117

>  <Activity>  (115) 
0.03

$$$$
3-nitro-7,8,9,10-tetrahydrobenzo[a]pyrene
     RDKit          2D

 23 27  0  0  0  0  0  0  0  0999 V2000
    0.0000    2.1000    0.0000 C   0  0  0  0  0  0  0  0  0  0  0  0
    0.0000    0.7000    0.0000 C   0  0  0  0  0  0  0  0  0  0  0  0
    1.1667    0.0000    0.0000 C   0  0  0  0  0  0  0  0  0  0  0  0
    2.3800    0.7000    0.0000 C   0  0  0  0  0  0  0  0  0  0  0  0
    2.3800    2.1000    0.0000 C   0  0  0  0  0  0  0  0  0  0  0  0
    1.1667    2.8000    0.0000 C   0  0  0  0  0  0  0  0  0  0  0  0
    3.5933    0.0000    0.0000 C   0  0  0  0  0  0  0  0  0  0  0  0
    4.8066    0.7000    0.0000 C   0  0  0  0  0  0  0  0  0  0  0  0
    4.8066    2.1000    0.0000 C   0  0  0  0  0  0  0  0  0  0  0  0
    3.5933    2.8000    0.0000 C   0  0  0  0  0  0  0  0  0  0  0  0
    6.0200    0.0000    0.0000 C   0  0  0  0  0  0  0  0  0  0  0  0
    7.2333    0.7000    0.0000 C   0  0  0  0  0  0  0  0  0  0  0  0
    7.2333    2.1000    0.0000 C   0  0  0  0  0  0  0  0  0  0  0  0
    6.0200    2.8000    0.0000 C   0  0  0  0  0  0  0  0  0  0  0  0
    6.0200    4.2000    0.0000 C   0  0  0  0  0  0  0  0  0  0  0  0
    4.8066    4.8533    0.0000 C   0  0  0  0  0  0  0  0  0  0  0  0
    3.5933    4.2000    0.0000 C   0  0  0  0  0  0  0  0  0  0  0  0
    8.4466    2.8000    0.0000 C   0  0  0  0  0  0  0  0  0  0  0  0
    8.4466    4.2000    0.0000 C   0  0  0  0  0  0  0  0  0  0  0  0
    7.2333    4.8533    0.0000 C   0  0  0  0  0  0  0  0  0  0  0  0
    9.6600    2.1000    0.0000 N   0  0  0  0  0  0  0  0  0  0  0  0
    9.6600    0.7000    0.0000 O   0  0  0  0  0  0  0  0  0  0  0  0
   10.8733    2.8000    0.0000 O   0  0  0  0  0  0  0  0  0  0  0  0
  1  2  1  0
  2  3  1  0
  3  4  1  0
  4  5  2  0
  5  6  1  0
  1  6  1  0
  4  7  1  0
  7  8  2  0
  8  9  1  0
  9 10  2  0
  5 10  1  0
  8 11  1  0
 11 12  2  0
 12 13  1  0
 13 14  2  0
  9 14  1  0
 14 15  1  0
 15 16  1  0
 16 17  2  0
 10 17  1  0
 13 18  1  0
 18 19  2  0
 19 20  1  0
 15 20  2  0
 18 21  1  0
 21 22  1  0
 21 23  2  0
M  CHG  2  21   1  22  -1
M  END
>  <Compound Name>  (116) 
3-nitro-7,8,9,10-tetrahydrobenzo[a]pyrene

>  <Formula>  (116) 
C20H15NO2

>  <LogP>  (116) 
6.57

>  <LUMO>  (116) 
-1.8

>  <MOL_ID>  (116) 
118

>  <Activity>  (116) 
0.3

$$$$
2,4,2'-trinitrobiphenyl
     RDKit          2D

 21 22  0  0  0  0  0  0  0  0999 V2000
    0.6530    4.8506    0.0000 C   0  0  0  0  0  0  0  0  0  0  0  0
   -0.0000    3.6380    0.0000 C   0  0  0  0  0  0  0  0  0  0  0  0
    0.6530    2.4253    0.0000 C   0  0  0  0  0  0  0  0  0  0  0  0
    2.0522    2.4253    0.0000 C   0  0  0  0  0  0  0  0  0  0  0  0
    2.7518    3.6380    0.0000 C   0  0  0  0  0  0  0  0  0  0  0  0
    2.0522    4.8506    0.0000 C   0  0  0  0  0  0  0  0  0  0  0  0
    4.1510    3.6380    0.0000 C   0  0  0  0  0  0  0  0  0  0  0  0
    4.8506    2.4253    0.0000 C   0  0  0  0  0  0  0  0  0  0  0  0
    6.2499    2.4253    0.0000 C   0  0  0  0  0  0  0  0  0  0  0  0
    6.9495    3.6380    0.0000 C   0  0  0  0  0  0  0  0  0  0  0  0
    6.2499    4.8506    0.0000 C   0  0  0  0  0  0  0  0  0  0  0  0
    4.8506    4.8506    0.0000 C   0  0  0  0  0  0  0  0  0  0  0  0
    4.1510    6.0633    0.0000 N   0  0  0  0  0  0  0  0  0  0  0  0
    4.8506    7.2760    0.0000 O   0  0  0  0  0  0  0  0  0  0  0  0
    2.7518    6.0633    0.0000 O   0  0  0  0  0  0  0  0  0  0  0  0
    8.3487    3.6380    0.0000 N   0  0  0  0  0  0  0  0  0  0  0  0
    9.0483    2.4253    0.0000 O   0  0  0  0  0  0  0  0  0  0  0  0
    9.0483    4.8506    0.0000 O   0  0  0  0  0  0  0  0  0  0  0  0
    2.7518    1.2127    0.0000 N   0  0  0  0  0  0  0  0  0  0  0  0
    2.0522    0.0000    0.0000 O   0  0  0  0  0  0  0  0  0  0  0  0
    4.1510    1.2127    0.0000 O   0  0  0  0  0  0  0  0  0  0  0  0
  1  2  2  0
  2  3  1  0
  3  4  2  0
  4  5  1  0
  5  6  2  0
  1  6  1  0
  5  7  1  0
  7  8  2  0
  8  9  1  0
  9 10  2  0
 10 11  1  0
 11 12  2  0
  7 12  1  0
 12 13  1  0
 13 14  1  0
 13 15  2  0
 10 16  1  0
 16 17  1  0
 16 18  2  0
  4 19  1  0
 19 20  1  0
 19 21  2  0
M  CHG  6  13   1  14  -1  16   1  17  -1  19   1  20  -1
M  END
>  <Compound Name>  (117) 
2,4,2'-trinitrobiphenyl

>  <Formula>  (117) 
C12H7N3O6

>  <LogP>  (117) 
3.26

>  <LUMO>  (117) 
-1.995

>  <MOL_ID>  (117) 
119

>  <Activity>  (117) 
-0.19

$$$$
1-methyl-5-nitroindazole
     RDKit          2D

 13 14  0  0  0  0  0  0  0  0999 V2000
    2.3787    3.1716    0.0000 C   0  0  0  0  0  0  0  0  0  0  0  0
    2.3787    1.7724    0.0000 C   0  0  0  0  0  0  0  0  0  0  0  0
    3.5913    1.0727    0.0000 C   0  0  0  0  0  0  0  0  0  0  0  0
    4.8040    1.7724    0.0000 C   0  0  0  0  0  0  0  0  0  0  0  0
    4.8040    3.1716    0.0000 C   0  0  0  0  0  0  0  0  0  0  0  0
    3.5913    3.8712    0.0000 C   0  0  0  0  0  0  0  0  0  0  0  0
    6.1566    1.3526    0.0000 N   0  0  0  0  0  0  0  0  0  0  0  0
    6.9495    2.4720    0.0000 N   0  0  0  0  0  0  0  0  0  0  0  0
    6.1566    3.5913    0.0000 C   0  0  0  0  0  0  0  0  0  0  0  0
    6.4831   -0.0000    0.0000 C   0  0  0  0  0  0  0  0  0  0  0  0
    1.1660    3.8712    0.0000 N   0  0  0  0  0  0  0  0  0  0  0  0
    1.1660    5.2704    0.0000 O   0  0  0  0  0  0  0  0  0  0  0  0
   -0.0000    3.1716    0.0000 O   0  0  0  0  0  0  0  0  0  0  0  0
  1  2  2  0
  2  3  1  0
  3  4  2  0
  4  5  1  0
  5  6  2  0
  1  6  1  0
  4  7  1  0
  7  8  1  0
  8  9  2  0
  5  9  1  0
  7 10  1  0
  1 11  1  0
 11 12  1  0
 11 13  2  0
M  CHG  2  11   1  12  -1
M  END
>  <Compound Name>  (118) 
1-methyl-5-nitroindazole

>  <Formula>  (118) 
C8H8N3O2

>  <LogP>  (118) 
1.77

>  <LUMO>  (118) 
-0.937

>  <MOL_ID>  (118) 
120

>  <Activity>  (118) 
-0.82

$$$$
1,2,5-trinitrofluoranthene
     RDKit          2D

 25 28  0  0  0  0  0  0  0  0999 V2000
    4.8040    3.4981    0.0000 C   0  0  0  0  0  0  0  0  0  0  0  0
    4.8040    2.0988    0.0000 C   0  0  0  0  0  0  0  0  0  0  0  0
    6.0166    1.3992    0.0000 C   0  0  0  0  0  0  0  0  0  0  0  0
    7.2293    2.0988    0.0000 C   0  0  0  0  0  0  0  0  0  0  0  0
    7.2293    3.4981    0.0000 C   0  0  0  0  0  0  0  0  0  0  0  0
    6.0166    4.1977    0.0000 C   0  0  0  0  0  0  0  0  0  0  0  0
    3.5913    4.1977    0.0000 C   0  0  0  0  0  0  0  0  0  0  0  0
    2.3787    3.4981    0.0000 C   0  0  0  0  0  0  0  0  0  0  0  0
    2.3787    2.0988    0.0000 C   0  0  0  0  0  0  0  0  0  0  0  0
    3.5913    1.3992    0.0000 C   0  0  0  0  0  0  0  0  0  0  0  0
    5.5969    5.5969    0.0000 C   0  0  0  0  0  0  0  0  0  0  0  0
    3.9178    5.5969    0.0000 C   0  0  0  0  0  0  0  0  0  0  0  0
    6.4364    7.0427    0.0000 C   0  0  0  0  0  0  0  0  0  0  0  0
    5.5969    8.4420    0.0000 C   0  0  0  0  0  0  0  0  0  0  0  0
    3.9178    8.4420    0.0000 C   0  0  0  0  0  0  0  0  0  0  0  0
    3.0783    7.0427    0.0000 C   0  0  0  0  0  0  0  0  0  0  0  0
    8.4420    4.1977    0.0000 N   0  0  0  0  0  0  0  0  0  0  0  0
    9.6546    3.4981    0.0000 O   0  0  0  0  0  0  0  0  0  0  0  0
    8.4420    5.5969    0.0000 O   0  0  0  0  0  0  0  0  0  0  0  0
    8.4420    1.3992    0.0000 N   0  0  0  0  0  0  0  0  0  0  0  0
    8.4420    0.0000    0.0000 O   0  0  0  0  0  0  0  0  0  0  0  0
    9.6546    2.0988    0.0000 O   0  0  0  0  0  0  0  0  0  0  0  0
    1.1660    1.3992    0.0000 N   0  0  0  0  0  0  0  0  0  0  0  0
   -0.0000    2.0988    0.0000 O   0  0  0  0  0  0  0  0  0  0  0  0
    1.1660    0.0000    0.0000 O   0  0  0  0  0  0  0  0  0  0  0  0
  1  2  1  0
  2  3  2  0
  3  4  1  0
  4  5  2  0
  5  6  1  0
  1  6  2  0
  1  7  1  0
  7  8  2  0
  8  9  1  0
  9 10  2  0
  2 10  1  0
  6 11  1  0
  7 12  1  0
 11 12  2  0
 11 13  1  0
 13 14  2  0
 14 15  1  0
 15 16  2  0
 12 16  1  0
  5 17  1  0
 17 18  1  0
 17 19  2  0
  4 20  1  0
 20 21  1  0
 20 22  2  0
  9 23  1  0
 23 24  1  0
 23 25  2  0
M  CHG  6  17   1  18  -1  20   1  21  -1  23   1  24  -1
M  END
>  <Compound Name>  (119) 
1,2,5-trinitrofluoranthene

>  <Formula>  (119) 
C16H7N3O6

>  <LogP>  (119) 
4.18

>  <LUMO>  (119) 
-2.68

>  <MOL_ID>  (119) 
121

>  <Activity>  (119) 
3.16

$$$$
6-nitrochrysene
     RDKit          2D

 21 24  0  0  0  0  0  0  0  0999 V2000
    2.3800    4.2000    0.0000 C   0  0  0  0  0  0  0  0  0  0  0  0
    2.3800    2.8000    0.0000 C   0  0  0  0  0  0  0  0  0  0  0  0
    3.5933    2.1000    0.0000 C   0  0  0  0  0  0  0  0  0  0  0  0
    4.8066    2.8000    0.0000 C   0  0  0  0  0  0  0  0  0  0  0  0
    4.8066    4.2000    0.0000 C   0  0  0  0  0  0  0  0  0  0  0  0
    3.5933    4.9000    0.0000 C   0  0  0  0  0  0  0  0  0  0  0  0
    1.1667    4.9000    0.0000 C   0  0  0  0  0  0  0  0  0  0  0  0
   -0.0000    4.2000    0.0000 C   0  0  0  0  0  0  0  0  0  0  0  0
   -0.0000    2.8000    0.0000 C   0  0  0  0  0  0  0  0  0  0  0  0
    1.1667    2.1000    0.0000 C   0  0  0  0  0  0  0  0  0  0  0  0
    6.0200    4.9000    0.0000 C   0  0  0  0  0  0  0  0  0  0  0  0
    6.0200    6.3000    0.0000 C   0  0  0  0  0  0  0  0  0  0  0  0
    4.8066    6.9533    0.0000 C   0  0  0  0  0  0  0  0  0  0  0  0
    3.5933    6.3000    0.0000 C   0  0  0  0  0  0  0  0  0  0  0  0
    7.2333    4.2000    0.0000 C   0  0  0  0  0  0  0  0  0  0  0  0
    8.4466    4.9000    0.0000 C   0  0  0  0  0  0  0  0  0  0  0  0
    8.4466    6.3000    0.0000 C   0  0  0  0  0  0  0  0  0  0  0  0
    7.2333    6.9533    0.0000 C   0  0  0  0  0  0  0  0  0  0  0  0
    3.5933    0.7000    0.0000 N   0  0  0  0  0  0  0  0  0  0  0  0
    2.3800    0.0000    0.0000 O   0  0  0  0  0  0  0  0  0  0  0  0
    4.8066    0.0000    0.0000 O   0  0  0  0  0  0  0  0  0  0  0  0
  1  2  1  0
  2  3  2  0
  3  4  1  0
  4  5  2  0
  5  6  1  0
  1  6  2  0
  1  7  1  0
  7  8  2  0
  8  9  1  0
  9 10  2  0
  2 10  1  0
  5 11  1  0
 11 12  2  0
 12 13  1  0
 13 14  2  0
  6 14  1  0
 11 15  1  0
 15 16  2  0
 16 17  1  0
 17 18  2  0
 12 18  1  0
  3 19  1  0
 19 20  1  0
 19 21  2  0
M  CHG  2  19   1  20  -1
M  END
>  <Compound Name>  (120) 
6-nitrochrysene

>  <Formula>  (120) 
C18H11NO2

>  <LogP>  (120) 
5.41

>  <LUMO>  (120) 
-1.61

>  <MOL_ID>  (120) 
122

>  <Activity>  (120) 
1.75

$$$$
3,2'-dimethyl-4-nitrobiphenyl
     RDKit          2D

 17 18  0  0  0  0  0  0  0  0999 V2000
    0.6530    2.4253    0.0000 C   0  0  0  0  0  0  0  0  0  0  0  0
   -0.0000    1.2127    0.0000 C   0  0  0  0  0  0  0  0  0  0  0  0
    0.6530    0.0000    0.0000 C   0  0  0  0  0  0  0  0  0  0  0  0
    2.0522    0.0000    0.0000 C   0  0  0  0  0  0  0  0  0  0  0  0
    2.7518    1.2127    0.0000 C   0  0  0  0  0  0  0  0  0  0  0  0
    2.0522    2.4253    0.0000 C   0  0  0  0  0  0  0  0  0  0  0  0
    4.1510    1.2127    0.0000 C   0  0  0  0  0  0  0  0  0  0  0  0
    4.8506    0.0000    0.0000 C   0  0  0  0  0  0  0  0  0  0  0  0
    6.2499    0.0000    0.0000 C   0  0  0  0  0  0  0  0  0  0  0  0
    6.9495    1.2127    0.0000 C   0  0  0  0  0  0  0  0  0  0  0  0
    6.2499    2.4253    0.0000 C   0  0  0  0  0  0  0  0  0  0  0  0
    4.8506    2.4253    0.0000 C   0  0  0  0  0  0  0  0  0  0  0  0
    6.9495    3.6380    0.0000 C   0  0  0  0  0  0  0  0  0  0  0  0
    2.7518    3.6380    0.0000 C   0  0  0  0  0  0  0  0  0  0  0  0
    8.3487    1.2127    0.0000 N   0  0  0  0  0  0  0  0  0  0  0  0
    9.0483    0.0000    0.0000 O   0  0  0  0  0  0  0  0  0  0  0  0
    9.0483    2.4253    0.0000 O   0  0  0  0  0  0  0  0  0  0  0  0
  1  2  2  0
  2  3  1  0
  3  4  2  0
  4  5  1  0
  5  6  2  0
  1  6  1  0
  5  7  1  0
  7  8  2  0
  8  9  1  0
  9 10  2  0
 10 11  1  0
 11 12  2  0
  7 12  1  0
 11 13  1  0
  6 14  1  0
 10 15  1  0
 15 16  1  0
 15 17  2  0
M  CHG  2  15   1  16  -1
M  END
>  <Compound Name>  (121) 
3,2'-dimethyl-4-nitrobiphenyl

>  <Formula>  (121) 
C14H13NO2

>  <LogP>  (121) 
4.49

>  <LUMO>  (121) 
-1.056

>  <MOL_ID>  (121) 
123

>  <Activity>  (121) 
-0.84

$$$$
1-nitro-2,4-difluorobenzene
     RDKit          2D

 11 11  0  0  0  0  0  0  0  0999 V2000
    2.0522    0.0000    0.0000 C   0  0  0  0  0  0  0  0  0  0  0  0
    3.4514    0.0000    0.0000 C   0  0  0  0  0  0  0  0  0  0  0  0
    4.1510    1.2127    0.0000 C   0  0  0  0  0  0  0  0  0  0  0  0
    3.4514    2.4253    0.0000 C   0  0  0  0  0  0  0  0  0  0  0  0
    2.0522    2.4253    0.0000 C   0  0  0  0  0  0  0  0  0  0  0  0
    1.3526    1.2127    0.0000 C   0  0  0  0  0  0  0  0  0  0  0  0
    5.5502    1.2127    0.0000 N   0  0  0  0  0  0  0  0  0  0  0  0
    6.2498    0.0000    0.0000 O   0  0  0  0  0  0  0  0  0  0  0  0
    6.2498    2.4253    0.0000 O   0  0  0  0  0  0  0  0  0  0  0  0
    4.1510    3.6380    0.0000 F   0  0  0  0  0  0  0  0  0  0  0  0
   -0.0000    1.2127    0.0000 F   0  0  0  0  0  0  0  0  0  0  0  0
  1  2  2  0
  2  3  1  0
  3  4  2  0
  4  5  1  0
  5  6  2  0
  1  6  1  0
  3  7  1  0
  7  8  1  0
  7  9  2  0
  4 10  1  0
  6 11  1  0
M  CHG  2   7   1   8  -1
M  END
>  <Compound Name>  (122) 
1-nitro-2,4-difluorobenzene

>  <Formula>  (122) 
C6H3F2NO2

>  <LogP>  (122) 
1.89

>  <LUMO>  (122) 
-1.596

>  <MOL_ID>  (122) 
124

>  <Activity>  (122) 
-1.66

$$$$
2-nitro-4,5-dihydropyrene
     RDKit          2D

 19 22  0  0  0  0  0  0  0  0999 V2000
   -0.0000    2.0988    0.0000 C   0  0  0  0  0  0  0  0  0  0  0  0
   -0.0000    0.6996    0.0000 C   0  0  0  0  0  0  0  0  0  0  0  0
    1.1660   -0.0000    0.0000 C   0  0  0  0  0  0  0  0  0  0  0  0
    2.3787    0.6996    0.0000 C   0  0  0  0  0  0  0  0  0  0  0  0
    2.3787    2.0988    0.0000 C   0  0  0  0  0  0  0  0  0  0  0  0
    1.1660    2.7985    0.0000 C   0  0  0  0  0  0  0  0  0  0  0  0
    3.5913    2.7985    0.0000 C   0  0  0  0  0  0  0  0  0  0  0  0
    3.5913    4.1977    0.0000 C   0  0  0  0  0  0  0  0  0  0  0  0
    2.3787    4.8973    0.0000 C   0  0  0  0  0  0  0  0  0  0  0  0
    1.1660    4.1977    0.0000 C   0  0  0  0  0  0  0  0  0  0  0  0
    4.8040    2.0988    0.0000 C   0  0  0  0  0  0  0  0  0  0  0  0
    6.0167    2.7985    0.0000 C   0  0  0  0  0  0  0  0  0  0  0  0
    6.0167    4.1977    0.0000 C   0  0  0  0  0  0  0  0  0  0  0  0
    4.8040    4.8973    0.0000 C   0  0  0  0  0  0  0  0  0  0  0  0
    3.5913   -0.0000    0.0000 C   0  0  0  0  0  0  0  0  0  0  0  0
    4.8040    0.6996    0.0000 C   0  0  0  0  0  0  0  0  0  0  0  0
    7.2293    4.8973    0.0000 N   0  0  0  0  0  0  0  0  0  0  0  0
    8.4420    4.1977    0.0000 O   0  0  0  0  0  0  0  0  0  0  0  0
    7.2293    6.2965    0.0000 O   0  0  0  0  0  0  0  0  0  0  0  0
  1  2  2  0
  2  3  1  0
  3  4  2  0
  4  5  1  0
  5  6  2  0
  1  6  1  0
  5  7  1  0
  7  8  2  0
  8  9  1  0
  9 10  2  0
  6 10  1  0
  7 11  1  0
 11 12  2  0
 12 13  1  0
 13 14  2  0
  8 14  1  0
  4 15  1  0
 15 16  1  0
 11 16  1  0
 13 17  1  0
 17 18  1  0
 17 19  2  0
M  CHG  2  17   1  18  -1
M  END
>  <Compound Name>  (123) 
2-nitro-4,5-dihydropyrene

>  <Formula>  (123) 
C16H11NO2

>  <LogP>  (123) 
4.99

>  <LUMO>  (123) 
-1.256

>  <MOL_ID>  (123) 
125

>  <Activity>  (123) 
3.27

$$$$
1,7-dinitrophenazine
     RDKit          2D

 20 22  0  0  0  0  0  0  0  0999 V2000
    3.5913    4.1977    0.0000 C   0  0  0  0  0  0  0  0  0  0  0  0
    2.3787    3.4981    0.0000 C   0  0  0  0  0  0  0  0  0  0  0  0
    2.3787    2.0988    0.0000 C   0  0  0  0  0  0  0  0  0  0  0  0
    3.5913    1.3992    0.0000 C   0  0  0  0  0  0  0  0  0  0  0  0
    4.8040    2.0988    0.0000 C   0  0  0  0  0  0  0  0  0  0  0  0
    4.8040    3.4981    0.0000 C   0  0  0  0  0  0  0  0  0  0  0  0
    6.0167    1.3992    0.0000 N   0  0  0  0  0  0  0  0  0  0  0  0
    7.2293    2.0988    0.0000 C   0  0  0  0  0  0  0  0  0  0  0  0
    7.2293    3.4981    0.0000 C   0  0  0  0  0  0  0  0  0  0  0  0
    6.0167    4.1977    0.0000 N   0  0  0  0  0  0  0  0  0  0  0  0
    8.4420    1.3992    0.0000 C   0  0  0  0  0  0  0  0  0  0  0  0
    9.6547    2.0988    0.0000 C   0  0  0  0  0  0  0  0  0  0  0  0
    9.6547    3.4981    0.0000 C   0  0  0  0  0  0  0  0  0  0  0  0
    8.4420    4.1977    0.0000 C   0  0  0  0  0  0  0  0  0  0  0  0
    8.4420    5.5969    0.0000 N   0  0  0  0  0  0  0  0  0  0  0  0
    9.6547    6.2965    0.0000 O   0  0  0  0  0  0  0  0  0  0  0  0
    7.2293    6.2965    0.0000 O   0  0  0  0  0  0  0  0  0  0  0  0
    1.1660    1.3992    0.0000 N   0  0  0  0  0  0  0  0  0  0  0  0
    0.0000    2.0988    0.0000 O   0  0  0  0  0  0  0  0  0  0  0  0
    1.1660    0.0000    0.0000 O   0  0  0  0  0  0  0  0  0  0  0  0
  1  2  2  0
  2  3  1  0
  3  4  2  0
  4  5  1  0
  5  6  2  0
  1  6  1  0
  5  7  1  0
  7  8  2  0
  8  9  1  0
  9 10  2  0
  6 10  1  0
  8 11  1  0
 11 12  2  0
 12 13  1  0
 13 14  2  0
  9 14  1  0
 14 15  1  0
 15 16  1  0
 15 17  2  0
  3 18  1  0
 18 19  1  0
 18 20  2  0
M  CHG  4  15   1  16  -1  18   1  19  -1
M  END
>  <Compound Name>  (124) 
1,7-dinitrophenazine

>  <Formula>  (124) 
C12H6N4O4

>  <LogP>  (124) 
2.29

>  <LUMO>  (124) 
-2.718

>  <MOL_ID>  (124) 
126

>  <Activity>  (124) 
2.02

$$$$
3,4,3'-trinitrobiphenyl
     RDKit          2D

 21 22  0  0  0  0  0  0  0  0999 V2000
    2.0522    2.4253    0.0000 C   0  0  0  0  0  0  0  0  0  0  0  0
    1.3526    1.2127    0.0000 C   0  0  0  0  0  0  0  0  0  0  0  0
    2.0522    0.0000    0.0000 C   0  0  0  0  0  0  0  0  0  0  0  0
    3.4514    0.0000    0.0000 C   0  0  0  0  0  0  0  0  0  0  0  0
    4.1510    1.2127    0.0000 C   0  0  0  0  0  0  0  0  0  0  0  0
    3.4514    2.4253    0.0000 C   0  0  0  0  0  0  0  0  0  0  0  0
    5.5502    1.2127    0.0000 C   0  0  0  0  0  0  0  0  0  0  0  0
    6.2499    0.0000    0.0000 C   0  0  0  0  0  0  0  0  0  0  0  0
    7.6491    0.0000    0.0000 C   0  0  0  0  0  0  0  0  0  0  0  0
    8.3487    1.2127    0.0000 C   0  0  0  0  0  0  0  0  0  0  0  0
    7.6491    2.4253    0.0000 C   0  0  0  0  0  0  0  0  0  0  0  0
    6.2499    2.4253    0.0000 C   0  0  0  0  0  0  0  0  0  0  0  0
    8.3487    3.6380    0.0000 N   0  0  0  0  0  0  0  0  0  0  0  0
    9.7479    3.6380    0.0000 O   0  0  0  0  0  0  0  0  0  0  0  0
    7.6491    4.8040    0.0000 O   0  0  0  0  0  0  0  0  0  0  0  0
    9.7479    1.2127    0.0000 N   0  0  0  0  0  0  0  0  0  0  0  0
   10.4475    0.0000    0.0000 O   0  0  0  0  0  0  0  0  0  0  0  0
   10.4475    2.4253    0.0000 O   0  0  0  0  0  0  0  0  0  0  0  0
    1.3526    3.6380    0.0000 N   0  0  0  0  0  0  0  0  0  0  0  0
    2.0522    4.8040    0.0000 O   0  0  0  0  0  0  0  0  0  0  0  0
   -0.0000    3.6380    0.0000 O   0  0  0  0  0  0  0  0  0  0  0  0
  1  2  2  0
  2  3  1  0
  3  4  2  0
  4  5  1  0
  5  6  2  0
  1  6  1  0
  5  7  1  0
  7  8  2  0
  8  9  1  0
  9 10  2  0
 10 11  1  0
 11 12  2  0
  7 12  1  0
 11 13  1  0
 13 14  1  0
 13 15  2  0
 10 16  1  0
 16 17  1  0
 16 18  2  0
  1 19  1  0
 19 20  1  0
 19 21  2  0
M  CHG  6  13   1  14  -1  16   1  17  -1  19   1  20  -1
M  END
>  <Compound Name>  (125) 
3,4,3'-trinitrobiphenyl

>  <Formula>  (125) 
C12H7N3O6

>  <LogP>  (125) 
3.26

>  <LUMO>  (125) 
-2.196

>  <MOL_ID>  (125) 
127

>  <Activity>  (125) 
1.92

$$$$
5-nitroacenaphthylene
     RDKit          2D

 15 17  0  0  0  0  0  0  0  0999 V2000
    2.3787    4.1977    0.0000 C   0  0  0  0  0  0  0  0  0  0  0  0
    2.3787    2.7984    0.0000 C   0  0  0  0  0  0  0  0  0  0  0  0
    3.5913    2.0988    0.0000 C   0  0  0  0  0  0  0  0  0  0  0  0
    4.8040    2.7984    0.0000 C   0  0  0  0  0  0  0  0  0  0  0  0
    4.8040    4.1977    0.0000 C   0  0  0  0  0  0  0  0  0  0  0  0
    3.5913    4.8973    0.0000 C   0  0  0  0  0  0  0  0  0  0  0  0
    1.1660    4.8973    0.0000 C   0  0  0  0  0  0  0  0  0  0  0  0
   -0.0000    4.1977    0.0000 C   0  0  0  0  0  0  0  0  0  0  0  0
   -0.0000    2.7984    0.0000 C   0  0  0  0  0  0  0  0  0  0  0  0
    1.1660    2.0988    0.0000 C   0  0  0  0  0  0  0  0  0  0  0  0
    3.5913    6.2965    0.0000 C   0  0  0  0  0  0  0  0  0  0  0  0
    1.1660    6.2965    0.0000 C   0  0  0  0  0  0  0  0  0  0  0  0
    3.5913    0.6996    0.0000 N   0  0  0  0  0  0  0  0  0  0  0  0
    2.3787   -0.0000    0.0000 O   0  0  0  0  0  0  0  0  0  0  0  0
    4.8040   -0.0000    0.0000 O   0  0  0  0  0  0  0  0  0  0  0  0
  1  2  1  0
  2  3  2  0
  3  4  1  0
  4  5  2  0
  5  6  1  0
  1  6  2  0
  1  7  1  0
  7  8  2  0
  8  9  1  0
  9 10  2  0
  2 10  1  0
  6 11  1  0
  7 12  1  0
 11 12  2  0
  3 13  1  0
 13 14  1  0
 13 15  2  0
M  CHG  2  13   1  14  -1
M  END
>  <Compound Name>  (126) 
5-nitroacenaphthylene

>  <Formula>  (126) 
C12H7NO2

>  <LogP>  (126) 
3.36

>  <LUMO>  (126) 
-2.149

>  <MOL_ID>  (126) 
128

>  <Activity>  (126) 
1.91

$$$$
2,4-dinitrophenylhydrazine
     RDKit          2D

 14 14  0  0  0  0  0  0  0  0999 V2000
    2.0533    1.2133    0.0000 C   0  0  0  0  0  0  0  0  0  0  0  0
    2.7533   -0.0000    0.0000 C   0  0  0  0  0  0  0  0  0  0  0  0
    4.1533   -0.0000    0.0000 C   0  0  0  0  0  0  0  0  0  0  0  0
    4.8533    1.2133    0.0000 C   0  0  0  0  0  0  0  0  0  0  0  0
    4.1533    2.4267    0.0000 C   0  0  0  0  0  0  0  0  0  0  0  0
    2.7533    2.4267    0.0000 C   0  0  0  0  0  0  0  0  0  0  0  0
    6.2533    1.2133    0.0000 N   0  0  0  0  0  2  0  0  0  0  0  0
    6.9533    2.4267    0.0000 N   0  0  0  0  0  0  0  0  0  0  0  0
    0.6533    1.2133    0.0000 N   0  0  0  0  0  0  0  0  0  0  0  0
    0.0000    2.4267    0.0000 O   0  0  0  0  0  0  0  0  0  0  0  0
    0.0000   -0.0000    0.0000 O   0  0  0  0  0  0  0  0  0  0  0  0
    4.8533    3.6400    0.0000 N   0  0  0  0  0  0  0  0  0  0  0  0
    6.2533    3.6400    0.0000 O   0  0  0  0  0  0  0  0  0  0  0  0
    4.1533    4.8067    0.0000 O   0  0  0  0  0  0  0  0  0  0  0  0
  1  2  2  0
  2  3  1  0
  3  4  2  0
  4  5  1  0
  5  6  2  0
  1  6  1  0
  4  7  1  0
  7  8  1  0
  1  9  1  0
  9 10  1  0
  9 11  2  0
  5 12  1  0
 12 13  1  0
 12 14  2  0
M  CHG  4   9   1  10  -1  12   1  13  -1
M  RAD  1   7   2
M  END
>  <Compound Name>  (127) 
2,4-dinitrophenylhydrazine

>  <Formula>  (127) 
C6H6N4O4

>  <LogP>  (127) 
1.46

>  <LUMO>  (127) 
-1.592

>  <MOL_ID>  (127) 
129

>  <Activity>  (127) 
-0.07

$$$$
2-nitroanisole
     RDKit          2D

 11 11  0  0  0  0  0  0  0  0999 V2000
   -0.0000    1.2133    0.0000 C   0  0  0  0  0  0  0  0  0  0  0  0
    0.6533   -0.0000    0.0000 C   0  0  0  0  0  0  0  0  0  0  0  0
    2.0533   -0.0000    0.0000 C   0  0  0  0  0  0  0  0  0  0  0  0
    2.7533    1.2133    0.0000 C   0  0  0  0  0  0  0  0  0  0  0  0
    2.0533    2.4267    0.0000 C   0  0  0  0  0  0  0  0  0  0  0  0
    0.6533    2.4267    0.0000 C   0  0  0  0  0  0  0  0  0  0  0  0
    4.1533    1.2133    0.0000 O   0  0  0  0  0  0  0  0  0  0  0  0
    4.8533    2.4267    0.0000 C   0  0  0  0  0  0  0  0  0  0  0  0
    2.7533    3.6400    0.0000 N   0  0  0  0  0  0  0  0  0  0  0  0
    4.1533    3.6400    0.0000 O   0  0  0  0  0  0  0  0  0  0  0  0
    2.0533    4.8067    0.0000 O   0  0  0  0  0  0  0  0  0  0  0  0
  1  2  2  0
  2  3  1  0
  3  4  2  0
  4  5  1  0
  5  6  2  0
  1  6  1  0
  4  7  1  0
  7  8  1  0
  5  9  1  0
  9 10  1  0
  9 11  2  0
M  CHG  2   9   1  10  -1
M  END
>  <Compound Name>  (128) 
2-nitroanisole

>  <Formula>  (128) 
C7H7NO3

>  <LogP>  (128) 
1.73

>  <LUMO>  (128) 
-0.93

>  <MOL_ID>  (128) 
130

>  <Activity>  (128) 
-2.7

$$$$
4-nitrochalcone
     RDKit          2D

 19 20  0  0  0  0  0  0  0  0999 V2000
   -0.0000    1.2133    0.0000 C   0  0  0  0  0  0  0  0  0  0  0  0
    0.6533   -0.0000    0.0000 C   0  0  0  0  0  0  0  0  0  0  0  0
    2.0533   -0.0000    0.0000 C   0  0  0  0  0  0  0  0  0  0  0  0
    2.7533    1.2133    0.0000 C   0  0  0  0  0  0  0  0  0  0  0  0
    2.0533    2.4266    0.0000 C   0  0  0  0  0  0  0  0  0  0  0  0
    0.6533    2.4266    0.0000 C   0  0  0  0  0  0  0  0  0  0  0  0
    4.1533    1.2133    0.0000 C   0  0  0  0  0  0  0  0  0  0  0  0
    4.8533    2.4266    0.0000 C   0  0  0  0  0  0  0  0  0  0  0  0
    6.2533    2.4266    0.0000 C   0  0  0  0  0  0  0  0  0  0  0  0
    6.2533    3.7800    0.0000 O   0  0  0  0  0  0  0  0  0  0  0  0
    7.6533    2.4266    0.0000 C   0  0  0  0  0  0  0  0  0  0  0  0
    8.3533    1.2133    0.0000 C   0  0  0  0  0  0  0  0  0  0  0  0
    9.7533    1.2133    0.0000 C   0  0  0  0  0  0  0  0  0  0  0  0
   10.4533    2.4266    0.0000 C   0  0  0  0  0  0  0  0  0  0  0  0
    9.7533    3.6400    0.0000 C   0  0  0  0  0  0  0  0  0  0  0  0
    8.3533    3.6400    0.0000 C   0  0  0  0  0  0  0  0  0  0  0  0
   11.8533    2.4266    0.0000 N   0  0  0  0  0  0  0  0  0  0  0  0
   12.5533    1.2133    0.0000 O   0  0  0  0  0  0  0  0  0  0  0  0
   12.5533    3.6400    0.0000 O   0  0  0  0  0  0  0  0  0  0  0  0
  1  2  2  0
  2  3  1  0
  3  4  2  0
  4  5  1  0
  5  6  2  0
  1  6  1  0
  4  7  1  0
  7  8  2  0
  8  9  1  0
  9 10  2  0
  9 11  1  0
 11 12  2  0
 12 13  1  0
 13 14  2  0
 14 15  1  0
 15 16  2  0
 11 16  1  0
 14 17  1  0
 17 18  1  0
 17 19  2  0
M  CHG  2  17   1  18  -1
M  END
>  <Compound Name>  (129) 
4-nitrochalcone

>  <Formula>  (129) 
C15H11NO3

>  <LogP>  (129) 
2.83

>  <LUMO>  (129) 
-1.538

>  <MOL_ID>  (129) 
131

>  <Activity>  (129) 
-1.15

$$$$
2-nitrobenzaldehyde
     RDKit          2D

 11 11  0  0  0  0  0  0  0  0999 V2000
    0.6533   -0.0000    0.0000 C   0  0  0  0  0  0  0  0  0  0  0  0
    2.0533   -0.0000    0.0000 C   0  0  0  0  0  0  0  0  0  0  0  0
    2.7533    1.2133    0.0000 C   0  0  0  0  0  0  0  0  0  0  0  0
    2.0533    2.4266    0.0000 C   0  0  0  0  0  0  0  0  0  0  0  0
    0.6533    2.4266    0.0000 C   0  0  0  0  0  0  0  0  0  0  0  0
   -0.0000    1.2133    0.0000 C   0  0  0  0  0  0  0  0  0  0  0  0
    4.1533    1.2133    0.0000 C   0  0  0  0  0  0  0  0  0  0  0  0
    4.8533    2.4266    0.0000 O   0  0  0  0  0  0  0  0  0  0  0  0
    2.7533    3.6400    0.0000 N   0  0  0  0  0  0  0  0  0  0  0  0
    4.1533    3.6400    0.0000 O   0  0  0  0  0  0  0  0  0  0  0  0
    2.0533    4.8066    0.0000 O   0  0  0  0  0  0  0  0  0  0  0  0
  1  2  2  0
  2  3  1  0
  3  4  2  0
  4  5  1  0
  5  6  2  0
  1  6  1  0
  3  7  1  0
  7  8  2  0
  4  9  1  0
  9 10  1  0
  9 11  2  0
M  CHG  2   9   1  10  -1
M  END
>  <Compound Name>  (130) 
2-nitrobenzaldehyde

>  <Formula>  (130) 
C7H5NO3

>  <LogP>  (130) 
1.74

>  <LUMO>  (130) 
-1.499

>  <MOL_ID>  (130) 
132

>  <Activity>  (130) 
-1.92

$$$$
2-nitro-1,3,7,8-tetrachlorodibenzo-1,4-dioxin
     RDKit          2D

 21 23  0  0  0  0  0  0  0  0999 V2000
    1.1660    2.0988    0.0000 C   0  0  0  0  0  0  0  0  0  0  0  0
    1.1660    0.6996    0.0000 C   0  0  0  0  0  0  0  0  0  0  0  0
    2.3787    0.0000    0.0000 C   0  0  0  0  0  0  0  0  0  0  0  0
    3.5913    0.6996    0.0000 C   0  0  0  0  0  0  0  0  0  0  0  0
    3.5913    2.0988    0.0000 C   0  0  0  0  0  0  0  0  0  0  0  0
    2.3787    2.7985    0.0000 C   0  0  0  0  0  0  0  0  0  0  0  0
    4.8040    0.0000    0.0000 O   0  0  0  0  0  0  0  0  0  0  0  0
    6.0167    0.6996    0.0000 C   0  0  0  0  0  0  0  0  0  0  0  0
    6.0167    2.0988    0.0000 C   0  0  0  0  0  0  0  0  0  0  0  0
    4.8040    2.7985    0.0000 O   0  0  0  0  0  0  0  0  0  0  0  0
    7.2293    0.0000    0.0000 C   0  0  0  0  0  0  0  0  0  0  0  0
    8.4420    0.6996    0.0000 C   0  0  0  0  0  0  0  0  0  0  0  0
    8.4420    2.0988    0.0000 C   0  0  0  0  0  0  0  0  0  0  0  0
    7.2293    2.7985    0.0000 C   0  0  0  0  0  0  0  0  0  0  0  0
    7.2293    4.1977    0.0000 Cl  0  0  0  0  0  0  0  0  0  0  0  0
    9.6547    0.0000    0.0000 Cl  0  0  0  0  0  0  0  0  0  0  0  0
    0.0000    0.0000    0.0000 Cl  0  0  0  0  0  0  0  0  0  0  0  0
    0.0000    2.7985    0.0000 Cl  0  0  0  0  0  0  0  0  0  0  0  0
    9.6547    2.7985    0.0000 N   0  0  0  0  0  0  0  0  0  0  0  0
   10.8673    2.0988    0.0000 O   0  0  0  0  0  0  0  0  0  0  0  0
    9.6547    4.1977    0.0000 O   0  0  0  0  0  0  0  0  0  0  0  0
  1  2  2  0
  2  3  1  0
  3  4  2  0
  4  5  1  0
  5  6  2  0
  1  6  1  0
  4  7  1  0
  7  8  1  0
  8  9  2  0
  9 10  1  0
  5 10  1  0
  8 11  1  0
 11 12  2  0
 12 13  1  0
 13 14  2  0
  9 14  1  0
 14 15  1  0
 12 16  1  0
  2 17  1  0
  1 18  1  0
 13 19  1  0
 19 20  1  0
 19 21  2  0
M  CHG  2  19   1  20  -1
M  END
>  <Compound Name>  (131) 
2-nitro-1,3,7,8-tetrachlorodibenzo-1,4-dioxin

>  <Formula>  (131) 
C12H3Cl4NO4

>  <LogP>  (131) 
7.13

>  <LUMO>  (131) 
-1.492

>  <MOL_ID>  (131) 
133

>  <Activity>  (131) 
-1.4

$$$$
2,7-dinitro-4,5-dihydropyrene
     RDKit          2D

 22 25  0  0  0  0  0  0  0  0999 V2000
    2.3787    3.4981    0.0000 C   0  0  0  0  0  0  0  0  0  0  0  0
    2.3787    2.0988    0.0000 C   0  0  0  0  0  0  0  0  0  0  0  0
    3.5913    1.3992    0.0000 C   0  0  0  0  0  0  0  0  0  0  0  0
    4.8040    2.0988    0.0000 C   0  0  0  0  0  0  0  0  0  0  0  0
    4.8040    3.4981    0.0000 C   0  0  0  0  0  0  0  0  0  0  0  0
    3.5913    4.1977    0.0000 C   0  0  0  0  0  0  0  0  0  0  0  0
    6.0167    4.1977    0.0000 C   0  0  0  0  0  0  0  0  0  0  0  0
    6.0167    5.5969    0.0000 C   0  0  0  0  0  0  0  0  0  0  0  0
    4.8040    6.2965    0.0000 C   0  0  0  0  0  0  0  0  0  0  0  0
    3.5913    5.5969    0.0000 C   0  0  0  0  0  0  0  0  0  0  0  0
    6.0167    1.3992    0.0000 C   0  0  0  0  0  0  0  0  0  0  0  0
    7.2293    2.0988    0.0000 C   0  0  0  0  0  0  0  0  0  0  0  0
    7.2293    3.4981    0.0000 C   0  0  0  0  0  0  0  0  0  0  0  0
    8.4420    4.1977    0.0000 C   0  0  0  0  0  0  0  0  0  0  0  0
    8.4420    5.5969    0.0000 C   0  0  0  0  0  0  0  0  0  0  0  0
    7.2293    6.2965    0.0000 C   0  0  0  0  0  0  0  0  0  0  0  0
    9.6546    6.2965    0.0000 N   0  0  0  0  0  0  0  0  0  0  0  0
   10.8673    5.5969    0.0000 O   0  0  0  0  0  0  0  0  0  0  0  0
    9.6546    7.6957    0.0000 O   0  0  0  0  0  0  0  0  0  0  0  0
    1.1660    1.3992    0.0000 N   0  0  0  0  0  0  0  0  0  0  0  0
    0.0000    2.0988    0.0000 O   0  0  0  0  0  0  0  0  0  0  0  0
    1.1660   -0.0000    0.0000 O   0  0  0  0  0  0  0  0  0  0  0  0
  1  2  2  0
  2  3  1  0
  3  4  2  0
  4  5  1  0
  5  6  2  0
  1  6  1  0
  5  7  1  0
  7  8  2  0
  8  9  1  0
  9 10  2  0
  6 10  1  0
  4 11  1  0
 11 12  1  0
 12 13  1  0
  7 13  1  0
 13 14  2  0
 14 15  1  0
 15 16  2  0
  8 16  1  0
 15 17  1  0
 17 18  1  0
 17 19  2  0
  2 20  1  0
 20 21  1  0
 20 22  2  0
M  CHG  4  17   1  18  -1  20   1  21  -1
M  END
>  <Compound Name>  (132) 
2,7-dinitro-4,5-dihydropyrene

>  <Formula>  (132) 
C16H10N2O4

>  <LogP>  (132) 
4.73

>  <LUMO>  (132) 
-1.951

>  <MOL_ID>  (132) 
134

>  <Activity>  (132) 
4.25

$$$$
3-chloro-4-fluoronitrobenzene
     RDKit          2D

 11 11  0  0  0  0  0  0  0  0999 V2000
    1.3526    1.2127    0.0000 C   0  0  0  0  0  0  0  0  0  0  0  0
    2.0522    0.0000    0.0000 C   0  0  0  0  0  0  0  0  0  0  0  0
    3.4514    0.0000    0.0000 C   0  0  0  0  0  0  0  0  0  0  0  0
    4.1510    1.2127    0.0000 C   0  0  0  0  0  0  0  0  0  0  0  0
    3.4514    2.4253    0.0000 C   0  0  0  0  0  0  0  0  0  0  0  0
    2.0522    2.4253    0.0000 C   0  0  0  0  0  0  0  0  0  0  0  0
    5.5502    1.2127    0.0000 N   0  0  0  0  0  0  0  0  0  0  0  0
    6.2498    0.0000    0.0000 O   0  0  0  0  0  0  0  0  0  0  0  0
    6.2498    2.4253    0.0000 O   0  0  0  0  0  0  0  0  0  0  0  0
    1.3526    3.6380    0.0000 Cl  0  0  0  0  0  0  0  0  0  0  0  0
   -0.0000    1.2127    0.0000 F   0  0  0  0  0  0  0  0  0  0  0  0
  1  2  2  0
  2  3  1  0
  3  4  2  0
  4  5  1  0
  5  6  2  0
  1  6  1  0
  4  7  1  0
  7  8  1  0
  7  9  2  0
  6 10  1  0
  1 11  1  0
M  CHG  2   7   1   8  -1
M  END
>  <Compound Name>  (133) 
3-chloro-4-fluoronitrobenzene

>  <Formula>  (133) 
C6H3ClFNO2

>  <LogP>  (133) 
2.74

>  <LUMO>  (133) 
-1.562

>  <MOL_ID>  (133) 
135

>  <Activity>  (133) 
-1.21

$$$$
1-hydroxy-3-nitropyrene
     RDKit          2D

 20 23  0  0  0  0  0  0  0  0999 V2000
   -0.0000    2.0988    0.0000 C   0  0  0  0  0  0  0  0  0  0  0  0
   -0.0000    0.6996    0.0000 C   0  0  0  0  0  0  0  0  0  0  0  0
    1.1660   -0.0000    0.0000 C   0  0  0  0  0  0  0  0  0  0  0  0
    2.3787    0.6996    0.0000 C   0  0  0  0  0  0  0  0  0  0  0  0
    2.3787    2.0988    0.0000 C   0  0  0  0  0  0  0  0  0  0  0  0
    1.1660    2.7984    0.0000 C   0  0  0  0  0  0  0  0  0  0  0  0
    3.5913    2.7984    0.0000 C   0  0  0  0  0  0  0  0  0  0  0  0
    3.5913    4.1977    0.0000 C   0  0  0  0  0  0  0  0  0  0  0  0
    2.3787    4.8973    0.0000 C   0  0  0  0  0  0  0  0  0  0  0  0
    1.1660    4.1977    0.0000 C   0  0  0  0  0  0  0  0  0  0  0  0
    4.8040    2.0988    0.0000 C   0  0  0  0  0  0  0  0  0  0  0  0
    6.0167    2.7984    0.0000 C   0  0  0  0  0  0  0  0  0  0  0  0
    6.0167    4.1977    0.0000 C   0  0  0  0  0  0  0  0  0  0  0  0
    4.8040    4.8973    0.0000 C   0  0  0  0  0  0  0  0  0  0  0  0
    3.5913   -0.0000    0.0000 C   0  0  0  0  0  0  0  0  0  0  0  0
    4.8040    0.6996    0.0000 C   0  0  0  0  0  0  0  0  0  0  0  0
    4.8040    6.2965    0.0000 O   0  0  0  0  0  0  0  0  0  0  0  0
    7.2293    2.0988    0.0000 N   0  0  0  0  0  0  0  0  0  0  0  0
    7.2293    0.6996    0.0000 O   0  0  0  0  0  0  0  0  0  0  0  0
    8.4420    2.7984    0.0000 O   0  0  0  0  0  0  0  0  0  0  0  0
  1  2  2  0
  2  3  1  0
  3  4  2  0
  4  5  1  0
  5  6  2  0
  1  6  1  0
  5  7  1  0
  7  8  2  0
  8  9  1  0
  9 10  2  0
  6 10  1  0
  7 11  1  0
 11 12  2  0
 12 13  1  0
 13 14  2  0
  8 14  1  0
  4 15  1  0
 15 16  2  0
 11 16  1  0
 14 17  1  0
 12 18  1  0
 18 19  1  0
 18 20  2  0
M  CHG  2  18   1  19  -1
M  END
>  <Compound Name>  (134) 
1-hydroxy-3-nitropyrene

>  <Formula>  (134) 
C16H9NO3

>  <LogP>  (134) 
4.66

>  <LUMO>  (134) 
-1.685

>  <MOL_ID>  (134) 
136

>  <Activity>  (134) 
3.87

$$$$
2,3-dinitrofluoranthene
     RDKit          2D

 22 25  0  0  0  0  0  0  0  0999 V2000
    2.3787    4.1977    0.0000 C   0  0  0  0  0  0  0  0  0  0  0  0
    2.3787    2.7985    0.0000 C   0  0  0  0  0  0  0  0  0  0  0  0
    3.5914    2.0988    0.0000 C   0  0  0  0  0  0  0  0  0  0  0  0
    4.8040    2.7985    0.0000 C   0  0  0  0  0  0  0  0  0  0  0  0
    4.8040    4.1977    0.0000 C   0  0  0  0  0  0  0  0  0  0  0  0
    3.5914    4.8973    0.0000 C   0  0  0  0  0  0  0  0  0  0  0  0
    1.1660    4.8973    0.0000 C   0  0  0  0  0  0  0  0  0  0  0  0
   -0.0000    4.1977    0.0000 C   0  0  0  0  0  0  0  0  0  0  0  0
   -0.0000    2.7985    0.0000 C   0  0  0  0  0  0  0  0  0  0  0  0
    1.1660    2.0988    0.0000 C   0  0  0  0  0  0  0  0  0  0  0  0
    3.0783    6.2965    0.0000 C   0  0  0  0  0  0  0  0  0  0  0  0
    1.6324    6.2965    0.0000 C   0  0  0  0  0  0  0  0  0  0  0  0
    3.8245    7.5558    0.0000 C   0  0  0  0  0  0  0  0  0  0  0  0
    3.0783    8.8151    0.0000 C   0  0  0  0  0  0  0  0  0  0  0  0
    1.6324    8.8151    0.0000 C   0  0  0  0  0  0  0  0  0  0  0  0
    0.9328    7.5558    0.0000 C   0  0  0  0  0  0  0  0  0  0  0  0
    6.0167    2.0988    0.0000 N   0  0  0  0  0  0  0  0  0  0  0  0
    6.0167    0.6996    0.0000 O   0  0  0  0  0  0  0  0  0  0  0  0
    7.2293    2.7985    0.0000 O   0  0  0  0  0  0  0  0  0  0  0  0
    3.5914    0.6996    0.0000 N   0  0  0  0  0  0  0  0  0  0  0  0
    2.3787    0.0000    0.0000 O   0  0  0  0  0  0  0  0  0  0  0  0
    4.8040    0.0000    0.0000 O   0  0  0  0  0  0  0  0  0  0  0  0
  1  2  1  0
  2  3  2  0
  3  4  1  0
  4  5  2  0
  5  6  1  0
  1  6  2  0
  1  7  1  0
  7  8  2  0
  8  9  1  0
  9 10  2  0
  2 10  1  0
  6 11  1  0
  7 12  1  0
 11 12  2  0
 11 13  1  0
 13 14  2  0
 14 15  1  0
 15 16  2  0
 12 16  1  0
  4 17  1  0
 17 18  1  0
 17 19  2  0
  3 20  1  0
 20 21  1  0
 20 22  2  0
M  CHG  4  17   1  18  -1  20   1  21  -1
M  END
>  <Compound Name>  (135) 
2,3-dinitrofluoranthene

>  <Formula>  (135) 
C16H8N2O4

>  <LogP>  (135) 
4.44

>  <LUMO>  (135) 
-2.263

>  <MOL_ID>  (135) 
137

>  <Activity>  (135) 
2.62

$$$$
2-methyl-6-nitroindazole
     RDKit          2D

 13 14  0  0  0  0  0  0  0  0999 V2000
    2.3787    2.0989    0.0000 C   0  0  0  0  0  0  0  0  0  0  0  0
    2.3787    0.6996    0.0000 C   0  0  0  0  0  0  0  0  0  0  0  0
    3.5914    0.0000    0.0000 C   0  0  0  0  0  0  0  0  0  0  0  0
    4.8040    0.6996    0.0000 C   0  0  0  0  0  0  0  0  0  0  0  0
    4.8040    2.0989    0.0000 C   0  0  0  0  0  0  0  0  0  0  0  0
    3.5914    2.7985    0.0000 C   0  0  0  0  0  0  0  0  0  0  0  0
    6.1566    0.2799    0.0000 C   0  0  0  0  0  0  0  0  0  0  0  0
    6.9495    1.3992    0.0000 N   0  0  0  0  0  0  0  0  0  0  0  0
    6.1566    2.5186    0.0000 N   0  0  0  0  0  0  0  0  0  0  0  0
    8.3487    1.3992    0.0000 C   0  0  0  0  0  0  0  0  0  0  0  0
    1.1660    2.7985    0.0000 N   0  0  0  0  0  0  0  0  0  0  0  0
    1.1660    4.1511    0.0000 O   0  0  0  0  0  0  0  0  0  0  0  0
    0.0000    2.0989    0.0000 O   0  0  0  0  0  0  0  0  0  0  0  0
  1  2  1  0
  2  3  2  0
  3  4  1  0
  4  5  1  0
  5  6  1  0
  1  6  2  0
  4  7  2  0
  7  8  1  0
  8  9  1  0
  5  9  2  0
  8 10  1  0
  1 11  1  0
 11 12  1  0
 11 13  2  0
M  CHG  2  11   1  12  -1
M  END
>  <Compound Name>  (136) 
2-methyl-6-nitroindazole

>  <Formula>  (136) 
C8H8N3O2

>  <LogP>  (136) 
1.77

>  <LUMO>  (136) 
-1.157

>  <MOL_ID>  (136) 
138

>  <Activity>  (136) 
-0.41

$$$$
4-chloro-2-nitroaniline
     RDKit          2D

 11 11  0  0  0  0  0  0  0  0999 V2000
    1.3533    1.2133    0.0000 C   0  0  0  0  0  0  0  0  0  0  0  0
    2.0533    0.0000    0.0000 C   0  0  0  0  0  0  0  0  0  0  0  0
    3.4533    0.0000    0.0000 C   0  0  0  0  0  0  0  0  0  0  0  0
    4.1534    1.2133    0.0000 C   0  0  0  0  0  0  0  0  0  0  0  0
    3.4533    2.4267    0.0000 C   0  0  0  0  0  0  0  0  0  0  0  0
    2.0533    2.4267    0.0000 C   0  0  0  0  0  0  0  0  0  0  0  0
    5.5534    1.2133    0.0000 N   0  0  0  0  0  0  0  0  0  0  0  0
    0.0000    1.2133    0.0000 Cl  0  0  0  0  0  0  0  0  0  0  0  0
    4.1534    3.6400    0.0000 N   0  0  0  0  0  0  0  0  0  0  0  0
    5.5534    3.6400    0.0000 O   0  0  0  0  0  0  0  0  0  0  0  0
    3.4533    4.8067    0.0000 O   0  0  0  0  0  0  0  0  0  0  0  0
  1  2  2  0
  2  3  1  0
  3  4  2  0
  4  5  1  0
  5  6  2  0
  1  6  1  0
  4  7  1  0
  1  8  1  0
  5  9  1  0
  9 10  1  0
  9 11  2  0
M  CHG  2   9   1  10  -1
M  END
>  <Compound Name>  (137) 
4-chloro-2-nitroaniline

>  <Formula>  (137) 
C6H5ClN2O2

>  <LogP>  (137) 
2.72

>  <LUMO>  (137) 
-1.019

>  <MOL_ID>  (137) 
139

>  <Activity>  (137) 
-2

$$$$
1,8-dinitronaphthalene
     RDKit          2D

 16 17  0  0  0  0  0  0  0  0999 V2000
    2.4267    2.1000    0.0000 C   0  0  0  0  0  0  0  0  0  0  0  0
    2.4267    0.7000    0.0000 C   0  0  0  0  0  0  0  0  0  0  0  0
    3.6400   -0.0000    0.0000 C   0  0  0  0  0  0  0  0  0  0  0  0
    4.8067    0.7000    0.0000 C   0  0  0  0  0  0  0  0  0  0  0  0
    4.8067    2.1000    0.0000 C   0  0  0  0  0  0  0  0  0  0  0  0
    3.6400    2.8000    0.0000 C   0  0  0  0  0  0  0  0  0  0  0  0
    1.1667    2.8000    0.0000 C   0  0  0  0  0  0  0  0  0  0  0  0
    0.0000    2.1000    0.0000 C   0  0  0  0  0  0  0  0  0  0  0  0
    0.0000    0.7000    0.0000 C   0  0  0  0  0  0  0  0  0  0  0  0
    1.1667   -0.0000    0.0000 C   0  0  0  0  0  0  0  0  0  0  0  0
    3.6400    4.2000    0.0000 N   0  0  0  0  0  0  0  0  0  0  0  0
    4.5267    4.8534    0.0000 O   0  0  0  0  0  0  0  0  0  0  0  0
    2.7067    4.7600    0.0000 O   0  0  0  0  0  0  0  0  0  0  0  0
    1.1667    4.2000    0.0000 N   0  0  0  0  0  0  0  0  0  0  0  0
    1.8667    4.7134    0.0000 O   0  0  0  0  0  0  0  0  0  0  0  0
    0.3267    4.7134    0.0000 O   0  0  0  0  0  0  0  0  0  0  0  0
  1  2  1  0
  2  3  2  0
  3  4  1  0
  4  5  2  0
  5  6  1  0
  1  6  2  0
  1  7  1  0
  7  8  2  0
  8  9  1  0
  9 10  2  0
  2 10  1  0
  6 11  1  0
 11 12  1  0
 11 13  2  0
  7 14  1  0
 14 15  1  0
 14 16  2  0
M  CHG  4  11   1  12  -1  14   1  15  -1
M  END
>  <Compound Name>  (138) 
1,8-dinitronaphthalene

>  <Formula>  (138) 
C10H6N2O4

>  <LogP>  (138) 
2.52

>  <LUMO>  (138) 
-1.751

>  <MOL_ID>  (138) 
140

>  <Activity>  (138) 
0.9

$$$$
2,3-dichloronitrobenzene
     RDKit          2D

 11 11  0  0  0  0  0  0  0  0999 V2000
   -0.0000    1.2133    0.0000 C   0  0  0  0  0  0  0  0  0  0  0  0
    0.6533    0.0000    0.0000 C   0  0  0  0  0  0  0  0  0  0  0  0
    2.0533    0.0000    0.0000 C   0  0  0  0  0  0  0  0  0  0  0  0
    2.7533    1.2133    0.0000 C   0  0  0  0  0  0  0  0  0  0  0  0
    2.0533    2.4266    0.0000 C   0  0  0  0  0  0  0  0  0  0  0  0
    0.6533    2.4266    0.0000 C   0  0  0  0  0  0  0  0  0  0  0  0
    4.1533    1.2133    0.0000 N   0  0  0  0  0  0  0  0  0  0  0  0
    4.8533    0.0000    0.0000 O   0  0  0  0  0  0  0  0  0  0  0  0
    4.8533    2.4266    0.0000 O   0  0  0  0  0  0  0  0  0  0  0  0
    2.7533    3.6400    0.0000 Cl  0  0  0  0  0  0  0  0  0  0  0  0
   -0.0000    3.6400    0.0000 Cl  0  0  0  0  0  0  0  0  0  0  0  0
  1  2  2  0
  2  3  1  0
  3  4  2  0
  4  5  1  0
  5  6  2  0
  1  6  1  0
  4  7  1  0
  7  8  1  0
  7  9  2  0
  5 10  1  0
  6 11  1  0
M  CHG  2   7   1   8  -1
M  END
>  <Compound Name>  (139) 
2,3-dichloronitrobenzene

>  <Formula>  (139) 
C6H3Cl2NO2

>  <LogP>  (139) 
3.05

>  <LUMO>  (139) 
-1.228

>  <MOL_ID>  (139) 
141

>  <Activity>  (139) 
-1.51

$$$$
8-nitro-2,3,7-trichlorodibenzo-1,4-dioxin
     RDKit          2D

 20 22  0  0  0  0  0  0  0  0999 V2000
    2.3787    2.0988    0.0000 C   0  0  0  0  0  0  0  0  0  0  0  0
    2.3787    0.6996    0.0000 C   0  0  0  0  0  0  0  0  0  0  0  0
    3.5913    0.0000    0.0000 C   0  0  0  0  0  0  0  0  0  0  0  0
    4.8040    0.6996    0.0000 C   0  0  0  0  0  0  0  0  0  0  0  0
    4.8040    2.0988    0.0000 C   0  0  0  0  0  0  0  0  0  0  0  0
    3.5913    2.7984    0.0000 C   0  0  0  0  0  0  0  0  0  0  0  0
    6.0166    0.0000    0.0000 O   0  0  0  0  0  0  0  0  0  0  0  0
    7.2293    0.6996    0.0000 C   0  0  0  0  0  0  0  0  0  0  0  0
    7.2293    2.0988    0.0000 C   0  0  0  0  0  0  0  0  0  0  0  0
    6.0166    2.7984    0.0000 O   0  0  0  0  0  0  0  0  0  0  0  0
    8.4420    0.0000    0.0000 C   0  0  0  0  0  0  0  0  0  0  0  0
    9.6546    0.6996    0.0000 C   0  0  0  0  0  0  0  0  0  0  0  0
    9.6546    2.0988    0.0000 C   0  0  0  0  0  0  0  0  0  0  0  0
    8.4420    2.7984    0.0000 C   0  0  0  0  0  0  0  0  0  0  0  0
   10.8673    2.7984    0.0000 Cl  0  0  0  0  0  0  0  0  0  0  0  0
   10.8673    0.0000    0.0000 Cl  0  0  0  0  0  0  0  0  0  0  0  0
    1.1660    0.0000    0.0000 Cl  0  0  0  0  0  0  0  0  0  0  0  0
    1.1660    2.7984    0.0000 N   0  0  0  0  0  0  0  0  0  0  0  0
    1.1660    4.1977    0.0000 O   0  0  0  0  0  0  0  0  0  0  0  0
    0.0000    2.0988    0.0000 O   0  0  0  0  0  0  0  0  0  0  0  0
  1  2  2  0
  2  3  1  0
  3  4  2  0
  4  5  1  0
  5  6  2  0
  1  6  1  0
  4  7  1  0
  7  8  1  0
  8  9  2  0
  9 10  1  0
  5 10  1  0
  8 11  1  0
 11 12  2  0
 12 13  1  0
 13 14  2  0
  9 14  1  0
 13 15  1  0
 12 16  1  0
  2 17  1  0
  1 18  1  0
 18 19  1  0
 18 20  2  0
M  CHG  2  18   1  19  -1
M  END
>  <Compound Name>  (140) 
8-nitro-2,3,7-trichlorodibenzo-1,4-dioxin

>  <Formula>  (140) 
C12H4Cl3NO4

>  <LogP>  (140) 
6.68

>  <LUMO>  (140) 
-1.474

>  <MOL_ID>  (140) 
142

>  <Activity>  (140) 
-0.53

$$$$
2-nitrophenetole
     RDKit          2D

 12 12  0  0  0  0  0  0  0  0999 V2000
    0.0000    1.2127    0.0000 C   0  0  0  0  0  0  0  0  0  0  0  0
    0.6996    0.0000    0.0000 C   0  0  0  0  0  0  0  0  0  0  0  0
    2.0988    0.0000    0.0000 C   0  0  0  0  0  0  0  0  0  0  0  0
    2.7985    1.2127    0.0000 C   0  0  0  0  0  0  0  0  0  0  0  0
    2.0988    2.4253    0.0000 C   0  0  0  0  0  0  0  0  0  0  0  0
    0.6996    2.4253    0.0000 C   0  0  0  0  0  0  0  0  0  0  0  0
    4.1977    1.2127    0.0000 N   0  0  0  0  0  0  0  0  0  0  0  0
    4.8973    0.0000    0.0000 O   0  0  0  0  0  0  0  0  0  0  0  0
    4.8973    2.4253    0.0000 O   0  0  0  0  0  0  0  0  0  0  0  0
    2.7985    3.6380    0.0000 O   0  0  0  0  0  0  0  0  0  0  0  0
    4.1977    3.6380    0.0000 C   0  0  0  0  0  0  0  0  0  0  0  0
    4.8973    4.8040    0.0000 C   0  0  0  0  0  0  0  0  0  0  0  0
  1  2  2  0
  2  3  1  0
  3  4  2  0
  4  5  1  0
  5  6  2  0
  1  6  1  0
  4  7  1  0
  7  8  1  0
  7  9  2  0
  5 10  1  0
 10 11  1  0
 11 12  1  0
M  CHG  2   7   1   8  -1
M  END
>  <Compound Name>  (141) 
2-nitrophenetole

>  <Formula>  (141) 
C8H9NO3

>  <LogP>  (141) 
2.35

>  <LUMO>  (141) 
-1.046

>  <MOL_ID>  (141) 
143

>  <Activity>  (141) 
-2.22

$$$$
2,5-dichloronitrobenzene
     RDKit          2D

 11 11  0  0  0  0  0  0  0  0999 V2000
   -0.0000    2.4267    0.0000 C   0  0  0  0  0  0  0  0  0  0  0  0
    0.6533    1.2133    0.0000 C   0  0  0  0  0  0  0  0  0  0  0  0
    2.0533    1.2133    0.0000 C   0  0  0  0  0  0  0  0  0  0  0  0
    2.7533    2.4267    0.0000 C   0  0  0  0  0  0  0  0  0  0  0  0
    2.0533    3.6400    0.0000 C   0  0  0  0  0  0  0  0  0  0  0  0
    0.6533    3.6400    0.0000 C   0  0  0  0  0  0  0  0  0  0  0  0
    4.1533    2.4267    0.0000 N   0  0  0  0  0  0  0  0  0  0  0  0
    4.8533    1.2133    0.0000 O   0  0  0  0  0  0  0  0  0  0  0  0
    4.8533    3.6400    0.0000 O   0  0  0  0  0  0  0  0  0  0  0  0
    2.7533    4.8067    0.0000 Cl  0  0  0  0  0  0  0  0  0  0  0  0
   -0.0000   -0.0000    0.0000 Cl  0  0  0  0  0  0  0  0  0  0  0  0
  1  2  2  0
  2  3  1  0
  3  4  2  0
  4  5  1  0
  5  6  2  0
  1  6  1  0
  4  7  1  0
  7  8  1  0
  7  9  2  0
  5 10  1  0
  2 11  1  0
M  CHG  2   7   1   8  -1
M  END
>  <Compound Name>  (142) 
2,5-dichloronitrobenzene

>  <Formula>  (142) 
C6H3Cl2NO2

>  <LogP>  (142) 
2.9

>  <LUMO>  (142) 
-1.288

>  <MOL_ID>  (142) 
144

>  <Activity>  (142) 
-1.54

$$$$
3-amino-4'-nitrobiphenyl
     RDKit          2D

 16 17  0  0  0  0  0  0  0  0999 V2000
    2.7518    2.4253    0.0000 C   0  0  0  0  0  0  0  0  0  0  0  0
    2.0522    1.2127    0.0000 C   0  0  0  0  0  0  0  0  0  0  0  0
    2.7518    0.0000    0.0000 C   0  0  0  0  0  0  0  0  0  0  0  0
    4.1510    0.0000    0.0000 C   0  0  0  0  0  0  0  0  0  0  0  0
    4.8506    1.2127    0.0000 C   0  0  0  0  0  0  0  0  0  0  0  0
    4.1510    2.4253    0.0000 C   0  0  0  0  0  0  0  0  0  0  0  0
    6.2499    1.2127    0.0000 C   0  0  0  0  0  0  0  0  0  0  0  0
    6.9495    0.0000    0.0000 C   0  0  0  0  0  0  0  0  0  0  0  0
    8.3487    0.0000    0.0000 C   0  0  0  0  0  0  0  0  0  0  0  0
    9.0483    1.2127    0.0000 C   0  0  0  0  0  0  0  0  0  0  0  0
    8.3487    2.4253    0.0000 C   0  0  0  0  0  0  0  0  0  0  0  0
    6.9495    2.4253    0.0000 C   0  0  0  0  0  0  0  0  0  0  0  0
    0.6530    1.2127    0.0000 N   0  0  0  0  0  0  0  0  0  0  0  0
   -0.0000    2.4253    0.0000 O   0  0  0  0  0  0  0  0  0  0  0  0
   -0.0000    0.0000    0.0000 O   0  0  0  0  0  0  0  0  0  0  0  0
    9.0483    3.6380    0.0000 N   0  0  0  0  0  0  0  0  0  0  0  0
  1  2  2  0
  2  3  1  0
  3  4  2  0
  4  5  1  0
  5  6  2  0
  1  6  1  0
  5  7  1  0
  7  8  2  0
  8  9  1  0
  9 10  2  0
 10 11  1  0
 11 12  2  0
  7 12  1  0
  2 13  1  0
 13 14  1  0
 13 15  2  0
 11 16  1  0
M  CHG  2  13   1  14  -1
M  END
>  <Compound Name>  (143) 
3-amino-4'-nitrobiphenyl

>  <Formula>  (143) 
C12H10N2O2

>  <LogP>  (143) 
2.68

>  <LUMO>  (143) 
-1.178

>  <MOL_ID>  (143) 
145

>  <Activity>  (143) 
0.25

$$$$
4-amino-4'-nitrobiphenyl
     RDKit          2D

 16 17  0  0  0  0  0  0  0  0999 V2000
    2.7533    2.3800    0.0000 C   0  0  0  0  0  0  0  0  0  0  0  0
    2.0533    1.2133    0.0000 C   0  0  0  0  0  0  0  0  0  0  0  0
    2.7533   -0.0000    0.0000 C   0  0  0  0  0  0  0  0  0  0  0  0
    4.1533   -0.0000    0.0000 C   0  0  0  0  0  0  0  0  0  0  0  0
    4.8533    1.2133    0.0000 C   0  0  0  0  0  0  0  0  0  0  0  0
    4.1533    2.3800    0.0000 C   0  0  0  0  0  0  0  0  0  0  0  0
    6.2533    1.2133    0.0000 C   0  0  0  0  0  0  0  0  0  0  0  0
    6.9533   -0.0000    0.0000 C   0  0  0  0  0  0  0  0  0  0  0  0
    8.3533   -0.0000    0.0000 C   0  0  0  0  0  0  0  0  0  0  0  0
    9.0533    1.2133    0.0000 C   0  0  0  0  0  0  0  0  0  0  0  0
    8.3533    2.3800    0.0000 C   0  0  0  0  0  0  0  0  0  0  0  0
    6.9533    2.3800    0.0000 C   0  0  0  0  0  0  0  0  0  0  0  0
    0.6533    1.2133    0.0000 N   0  0  0  0  0  0  0  0  0  0  0  0
   -0.0000    2.3800    0.0000 O   0  0  0  0  0  0  0  0  0  0  0  0
   -0.0000   -0.0000    0.0000 O   0  0  0  0  0  0  0  0  0  0  0  0
   10.4533    1.2133    0.0000 N   0  0  0  0  0  0  0  0  0  0  0  0
  1  2  2  0
  2  3  1  0
  3  4  2  0
  4  5  1  0
  5  6  2  0
  1  6  1  0
  5  7  1  0
  7  8  2  0
  8  9  1  0
  9 10  2  0
 10 11  1  0
 11 12  2  0
  7 12  1  0
  2 13  1  0
 13 14  1  0
 13 15  2  0
 10 16  1  0
M  CHG  2  13   1  14  -1
M  END
>  <Compound Name>  (144) 
4-amino-4'-nitrobiphenyl

>  <Formula>  (144) 
C12H10N2O2

>  <LogP>  (144) 
2.68

>  <LUMO>  (144) 
-1.102

>  <MOL_ID>  (144) 
146

>  <Activity>  (144) 
0.19

$$$$
3-nitroacenaphthylene
     RDKit          2D

 15 17  0  0  0  0  0  0  0  0999 V2000
    2.3787    2.0988    0.0000 C   0  0  0  0  0  0  0  0  0  0  0  0
    2.3787    0.6996    0.0000 C   0  0  0  0  0  0  0  0  0  0  0  0
    3.5913    0.0000    0.0000 C   0  0  0  0  0  0  0  0  0  0  0  0
    4.8040    0.6996    0.0000 C   0  0  0  0  0  0  0  0  0  0  0  0
    4.8040    2.0988    0.0000 C   0  0  0  0  0  0  0  0  0  0  0  0
    3.5913    2.7985    0.0000 C   0  0  0  0  0  0  0  0  0  0  0  0
    1.1660    2.7985    0.0000 C   0  0  0  0  0  0  0  0  0  0  0  0
   -0.0000    2.0988    0.0000 C   0  0  0  0  0  0  0  0  0  0  0  0
   -0.0000    0.6996    0.0000 C   0  0  0  0  0  0  0  0  0  0  0  0
    1.1660    0.0000    0.0000 C   0  0  0  0  0  0  0  0  0  0  0  0
    3.5913    4.1977    0.0000 C   0  0  0  0  0  0  0  0  0  0  0  0
    1.1660    4.1977    0.0000 C   0  0  0  0  0  0  0  0  0  0  0  0
    6.0167    2.7985    0.0000 N   0  0  0  0  0  0  0  0  0  0  0  0
    7.2293    2.0988    0.0000 O   0  0  0  0  0  0  0  0  0  0  0  0
    6.0167    4.1977    0.0000 O   0  0  0  0  0  0  0  0  0  0  0  0
  1  2  1  0
  2  3  2  0
  3  4  1  0
  4  5  2  0
  5  6  1  0
  1  6  2  0
  1  7  1  0
  7  8  2  0
  8  9  1  0
  9 10  2  0
  2 10  1  0
  6 11  1  0
  7 12  1  0
 11 12  2  0
  5 13  1  0
 13 14  1  0
 13 15  2  0
M  CHG  2  13   1  14  -1
M  END
>  <Compound Name>  (145) 
3-nitroacenaphthylene

>  <Formula>  (145) 
C12H7NO2

>  <LogP>  (145) 
3.36

>  <LUMO>  (145) 
-2.158

>  <MOL_ID>  (145) 
148

>  <Activity>  (145) 
1.77

$$$$
2,7-dinitrophenazine
     RDKit          2D

 20 22  0  0  0  0  0  0  0  0999 V2000
    2.3320    3.4981    0.0000 C   0  0  0  0  0  0  0  0  0  0  0  0
    2.3320    2.0988    0.0000 C   0  0  0  0  0  0  0  0  0  0  0  0
    3.5447    1.3992    0.0000 C   0  0  0  0  0  0  0  0  0  0  0  0
    4.7574    2.0988    0.0000 C   0  0  0  0  0  0  0  0  0  0  0  0
    4.7574    3.4981    0.0000 C   0  0  0  0  0  0  0  0  0  0  0  0
    3.5447    4.1977    0.0000 C   0  0  0  0  0  0  0  0  0  0  0  0
    5.9700    1.3992    0.0000 N   0  0  0  0  0  0  0  0  0  0  0  0
    7.1827    2.0988    0.0000 C   0  0  0  0  0  0  0  0  0  0  0  0
    7.1827    3.4981    0.0000 C   0  0  0  0  0  0  0  0  0  0  0  0
    5.9700    4.1977    0.0000 N   0  0  0  0  0  0  0  0  0  0  0  0
    8.3954    1.3992    0.0000 C   0  0  0  0  0  0  0  0  0  0  0  0
    9.6080    2.0988    0.0000 C   0  0  0  0  0  0  0  0  0  0  0  0
    9.6080    3.4981    0.0000 C   0  0  0  0  0  0  0  0  0  0  0  0
    8.3954    4.1977    0.0000 C   0  0  0  0  0  0  0  0  0  0  0  0
   10.8207    4.1977    0.0000 N   0  0  0  0  0  0  0  0  0  0  0  0
   12.0333    3.4981    0.0000 O   0  0  0  0  0  0  0  0  0  0  0  0
   10.8207    5.5036    0.0000 O   0  0  0  0  0  0  0  0  0  0  0  0
    1.1194    1.3992    0.0000 N   0  0  0  0  0  0  0  0  0  0  0  0
    0.0000    2.0988    0.0000 O   0  0  0  0  0  0  0  0  0  0  0  0
    1.1194    0.0000    0.0000 O   0  0  0  0  0  0  0  0  0  0  0  0
  1  2  2  0
  2  3  1  0
  3  4  2  0
  4  5  1  0
  5  6  2  0
  1  6  1  0
  4  7  1  0
  7  8  2  0
  8  9  1  0
  9 10  2  0
  5 10  1  0
  8 11  1  0
 11 12  2  0
 12 13  1  0
 13 14  2  0
  9 14  1  0
 13 15  1  0
 15 16  1  0
 15 17  2  0
  2 18  1  0
 18 19  1  0
 18 20  2  0
M  CHG  4  15   1  16  -1  18   1  19  -1
M  END
>  <Compound Name>  (146) 
2,7-dinitrophenazine

>  <Formula>  (146) 
C12H6N4O4

>  <LogP>  (146) 
2.29

>  <LUMO>  (146) 
-2.87

>  <MOL_ID>  (146) 
149

>  <Activity>  (146) 
4.34

$$$$
metronidazole
     RDKit          2D

 12 12  0  0  0  0  0  0  0  0999 V2000
    2.2854    1.3992    0.0000 C   0  0  0  0  0  0  0  0  0  0  0  0
    2.2854   -0.0000    0.0000 C   0  0  0  0  0  0  0  0  0  0  0  0
    3.4980    2.0988    0.0000 N   0  0  0  0  0  0  0  0  0  0  0  0
    4.7107    1.3992    0.0000 C   0  0  0  0  0  0  0  0  0  0  0  0
    4.7107   -0.0000    0.0000 N   0  0  0  0  0  0  0  0  0  0  0  0
    5.9234    2.0988    0.0000 C   0  0  0  0  0  0  0  0  0  0  0  0
    3.4980    3.4980    0.0000 C   0  0  0  0  0  0  0  0  0  0  0  0
    4.7107    4.1977    0.0000 C   0  0  0  0  0  0  0  0  0  0  0  0
    5.9234    3.4980    0.0000 O   0  0  0  0  0  0  0  0  0  0  0  0
    1.3059    2.3787    0.0000 N   0  0  0  0  0  0  0  0  0  0  0  0
    1.6791    3.7313    0.0000 O   0  0  0  0  0  0  0  0  0  0  0  0
    0.0000    2.0055    0.0000 O   0  0  0  0  0  0  0  0  0  0  0  0
  1  2  2  0
  1  3  1  0
  3  4  1  0
  4  5  2  0
  2  5  1  0
  4  6  1  0
  3  7  1  0
  7  8  1  0
  8  9  1  0
  1 10  1  0
 10 11  1  0
 10 12  2  0
M  CHG  2  10   1  11  -1
M  END
>  <Compound Name>  (147) 
metronidazole

>  <Formula>  (147) 
C6H10N3O3

>  <LogP>  (147) 
-0.02

>  <LUMO>  (147) 
-0.995

>  <MOL_ID>  (147) 
150

>  <Activity>  (147) 
-1.61

$$$$
2,5-dinitrofluoranthene
     RDKit          2D

 22 25  0  0  0  0  0  0  0  0999 V2000
    4.8040    3.4981    0.0000 C   0  0  0  0  0  0  0  0  0  0  0  0
    4.8040    2.0988    0.0000 C   0  0  0  0  0  0  0  0  0  0  0  0
    6.0167    1.3992    0.0000 C   0  0  0  0  0  0  0  0  0  0  0  0
    7.2293    2.0988    0.0000 C   0  0  0  0  0  0  0  0  0  0  0  0
    7.2293    3.4981    0.0000 C   0  0  0  0  0  0  0  0  0  0  0  0
    6.0167    4.1977    0.0000 C   0  0  0  0  0  0  0  0  0  0  0  0
    3.5913    4.1977    0.0000 C   0  0  0  0  0  0  0  0  0  0  0  0
    2.3787    3.4981    0.0000 C   0  0  0  0  0  0  0  0  0  0  0  0
    2.3787    2.0988    0.0000 C   0  0  0  0  0  0  0  0  0  0  0  0
    3.5913    1.3992    0.0000 C   0  0  0  0  0  0  0  0  0  0  0  0
    5.4570    5.5969    0.0000 C   0  0  0  0  0  0  0  0  0  0  0  0
    4.1510    5.5969    0.0000 C   0  0  0  0  0  0  0  0  0  0  0  0
    6.1099    6.7163    0.0000 C   0  0  0  0  0  0  0  0  0  0  0  0
    5.4570    7.7890    0.0000 C   0  0  0  0  0  0  0  0  0  0  0  0
    4.1510    7.7890    0.0000 C   0  0  0  0  0  0  0  0  0  0  0  0
    3.4981    6.7163    0.0000 C   0  0  0  0  0  0  0  0  0  0  0  0
    8.4420    1.3992    0.0000 N   0  0  0  0  0  0  0  0  0  0  0  0
    8.4420    0.0000    0.0000 O   0  0  0  0  0  0  0  0  0  0  0  0
    9.6546    2.0988    0.0000 O   0  0  0  0  0  0  0  0  0  0  0  0
    1.1660    1.3992    0.0000 N   0  0  0  0  0  0  0  0  0  0  0  0
   -0.0000    2.0988    0.0000 O   0  0  0  0  0  0  0  0  0  0  0  0
    1.1660    0.0000    0.0000 O   0  0  0  0  0  0  0  0  0  0  0  0
  1  2  1  0
  2  3  2  0
  3  4  1  0
  4  5  2  0
  5  6  1  0
  1  6  2  0
  1  7  1  0
  7  8  2  0
  8  9  1  0
  9 10  2  0
  2 10  1  0
  6 11  1  0
  7 12  1  0
 11 12  2  0
 11 13  1  0
 13 14  2  0
 14 15  1  0
 15 16  2  0
 12 16  1  0
  4 17  1  0
 17 18  1  0
 17 19  2  0
  9 20  1  0
 20 21  1  0
 20 22  2  0
M  CHG  4  17   1  18  -1  20   1  21  -1
M  END
>  <Compound Name>  (148) 
2,5-dinitrofluoranthene

>  <Formula>  (148) 
C16H8N2O4

>  <LogP>  (148) 
4.44

>  <LUMO>  (148) 
-2.191

>  <MOL_ID>  (148) 
152

>  <Activity>  (148) 
2.32

$$$$
5-nitroacenaphthene
     RDKit          2D

 15 17  0  0  0  0  0  0  0  0999 V2000
    2.3787    4.1977    0.0000 C   0  0  0  0  0  0  0  0  0  0  0  0
    2.3787    2.7984    0.0000 C   0  0  0  0  0  0  0  0  0  0  0  0
    3.5913    2.0988    0.0000 C   0  0  0  0  0  0  0  0  0  0  0  0
    4.8040    2.7984    0.0000 C   0  0  0  0  0  0  0  0  0  0  0  0
    4.8040    4.1977    0.0000 C   0  0  0  0  0  0  0  0  0  0  0  0
    3.5913    4.8973    0.0000 C   0  0  0  0  0  0  0  0  0  0  0  0
    1.1660    4.8973    0.0000 C   0  0  0  0  0  0  0  0  0  0  0  0
   -0.0000    4.1977    0.0000 C   0  0  0  0  0  0  0  0  0  0  0  0
   -0.0000    2.7984    0.0000 C   0  0  0  0  0  0  0  0  0  0  0  0
    1.1660    2.0988    0.0000 C   0  0  0  0  0  0  0  0  0  0  0  0
    3.5913    6.2965    0.0000 C   0  0  0  0  0  0  0  0  0  0  0  0
    1.1660    6.2965    0.0000 C   0  0  0  0  0  0  0  0  0  0  0  0
    3.5913    0.6996    0.0000 N   0  0  0  0  0  0  0  0  0  0  0  0
    2.3787   -0.0000    0.0000 O   0  0  0  0  0  0  0  0  0  0  0  0
    4.8040   -0.0000    0.0000 O   0  0  0  0  0  0  0  0  0  0  0  0
  1  2  1  0
  2  3  2  0
  3  4  1  0
  4  5  2  0
  5  6  1  0
  1  6  2  0
  1  7  1  0
  7  8  2  0
  8  9  1  0
  9 10  2  0
  2 10  1  0
  6 11  1  0
  7 12  1  0
 11 12  1  0
  3 13  1  0
 13 14  1  0
 13 15  2  0
M  CHG  2  13   1  14  -1
M  END
>  <Compound Name>  (149) 
5-nitroacenaphthene

>  <Formula>  (149) 
C12H9NO2

>  <LogP>  (149) 
3.85

>  <LUMO>  (149) 
-1.151

>  <MOL_ID>  (149) 
153

>  <Activity>  (149) 
0.58

$$$$
2,4-dinitroanisole
     RDKit          2D

 14 14  0  0  0  0  0  0  0  0999 V2000
    2.0533    1.2133    0.0000 C   0  0  0  0  0  0  0  0  0  0  0  0
    2.7533   -0.0000    0.0000 C   0  0  0  0  0  0  0  0  0  0  0  0
    4.1533   -0.0000    0.0000 C   0  0  0  0  0  0  0  0  0  0  0  0
    4.8533    1.2133    0.0000 C   0  0  0  0  0  0  0  0  0  0  0  0
    4.1533    2.4267    0.0000 C   0  0  0  0  0  0  0  0  0  0  0  0
    2.7533    2.4267    0.0000 C   0  0  0  0  0  0  0  0  0  0  0  0
    6.2533    1.2133    0.0000 O   0  0  0  0  0  0  0  0  0  0  0  0
    7.6533    1.2133    0.0000 C   0  0  0  0  0  0  0  0  0  0  0  0
    4.8533    3.6400    0.0000 N   0  0  0  0  0  0  0  0  0  0  0  0
    6.2533    3.6400    0.0000 O   0  0  0  0  0  0  0  0  0  0  0  0
    4.1533    4.8067    0.0000 O   0  0  0  0  0  0  0  0  0  0  0  0
    0.6533    1.2133    0.0000 N   0  0  0  0  0  0  0  0  0  0  0  0
   -0.0000    2.4267    0.0000 O   0  0  0  0  0  0  0  0  0  0  0  0
   -0.0000   -0.0000    0.0000 O   0  0  0  0  0  0  0  0  0  0  0  0
  1  2  2  0
  2  3  1  0
  3  4  2  0
  4  5  1  0
  5  6  2  0
  1  6  1  0
  4  7  1  0
  7  8  1  0
  5  9  1  0
  9 10  1  0
  9 11  2  0
  1 12  1  0
 12 13  1  0
 12 14  2  0
M  CHG  4   9   1  10  -1  12   1  13  -1
M  END
>  <Compound Name>  (150) 
2,4-dinitroanisole

>  <Formula>  (150) 
C7H6N2O5

>  <LogP>  (150) 
1.72

>  <LUMO>  (150) 
-1.737

>  <MOL_ID>  (150) 
155

>  <Activity>  (150) 
-1.89

$$$$
6-nitroindoline
     RDKit          2D

 12 13  0  0  0  0  0  0  0  0999 V2000
    3.5913    1.3992    0.0000 C   0  0  0  0  0  0  0  0  0  0  0  0
    4.8040    2.0988    0.0000 C   0  0  0  0  0  0  0  0  0  0  0  0
    4.8040    3.4981    0.0000 C   0  0  0  0  0  0  0  0  0  0  0  0
    3.5913    4.1977    0.0000 C   0  0  0  0  0  0  0  0  0  0  0  0
    2.3787    3.4981    0.0000 C   0  0  0  0  0  0  0  0  0  0  0  0
    2.3787    2.0988    0.0000 C   0  0  0  0  0  0  0  0  0  0  0  0
    6.1566    1.6791    0.0000 N   0  0  0  0  0  2  0  0  0  0  0  0
    6.9495    2.7984    0.0000 C   0  0  0  0  0  0  0  0  0  0  0  0
    6.1566    3.9178    0.0000 C   0  0  0  0  0  0  0  0  0  0  0  0
    1.1660    1.3992    0.0000 N   0  0  0  0  0  0  0  0  0  0  0  0
   -0.0000    2.0988    0.0000 O   0  0  0  0  0  0  0  0  0  0  0  0
    1.1660    0.0000    0.0000 O   0  0  0  0  0  0  0  0  0  0  0  0
  1  2  2  0
  2  3  1  0
  3  4  2  0
  4  5  1  0
  5  6  2  0
  1  6  1  0
  2  7  1  0
  7  8  1  0
  8  9  1  0
  3  9  1  0
  6 10  1  0
 10 11  1  0
 10 12  2  0
M  CHG  2  10   1  11  -1
M  RAD  1   7   2
M  END
>  <Compound Name>  (151) 
6-nitroindoline

>  <Formula>  (151) 
C8H8N2O2

>  <LogP>  (151) 
1.92

>  <LUMO>  (151) 
-0.854

>  <MOL_ID>  (151) 
156

>  <Activity>  (151) 
-0.48

$$$$
6-hydroxy-1-nitropyrene
     RDKit          2D

 20 23  0  0  0  0  0  0  0  0999 V2000
   -0.0000    3.5000    0.0000 C   0  0  0  0  0  0  0  0  0  0  0  0
   -0.0000    2.1000    0.0000 C   0  0  0  0  0  0  0  0  0  0  0  0
    1.1667    1.4000    0.0000 C   0  0  0  0  0  0  0  0  0  0  0  0
    2.3800    2.1000    0.0000 C   0  0  0  0  0  0  0  0  0  0  0  0
    2.3800    3.5000    0.0000 C   0  0  0  0  0  0  0  0  0  0  0  0
    1.1667    4.2000    0.0000 C   0  0  0  0  0  0  0  0  0  0  0  0
    3.5933    4.2000    0.0000 C   0  0  0  0  0  0  0  0  0  0  0  0
    3.5933    5.6000    0.0000 C   0  0  0  0  0  0  0  0  0  0  0  0
    2.3800    6.3000    0.0000 C   0  0  0  0  0  0  0  0  0  0  0  0
    1.1667    5.6000    0.0000 C   0  0  0  0  0  0  0  0  0  0  0  0
    3.5933    1.4000    0.0000 C   0  0  0  0  0  0  0  0  0  0  0  0
    4.8067    2.1000    0.0000 C   0  0  0  0  0  0  0  0  0  0  0  0
    4.8067    3.5000    0.0000 C   0  0  0  0  0  0  0  0  0  0  0  0
    5.9733    4.2000    0.0000 C   0  0  0  0  0  0  0  0  0  0  0  0
    5.9733    5.6000    0.0000 C   0  0  0  0  0  0  0  0  0  0  0  0
    4.8067    6.3000    0.0000 C   0  0  0  0  0  0  0  0  0  0  0  0
    1.1667   -0.0000    0.0000 O   0  0  0  0  0  0  0  0  0  0  0  0
    4.8067    7.7000    0.0000 N   0  0  0  0  0  0  0  0  0  0  0  0
    5.9733    8.3533    0.0000 O   0  0  0  0  0  0  0  0  0  0  0  0
    3.5933    8.3533    0.0000 O   0  0  0  0  0  0  0  0  0  0  0  0
  1  2  2  0
  2  3  1  0
  3  4  2  0
  4  5  1  0
  5  6  2  0
  1  6  1  0
  5  7  1  0
  7  8  2  0
  8  9  1  0
  9 10  2  0
  6 10  1  0
  4 11  1  0
 11 12  2  0
 12 13  1  0
  7 13  1  0
 13 14  2  0
 14 15  1  0
 15 16  2  0
  8 16  1  0
  3 17  1  0
 16 18  1  0
 18 19  1  0
 18 20  2  0
M  CHG  2  18   1  19  -1
M  END
>  <Compound Name>  (152) 
6-hydroxy-1-nitropyrene

>  <Formula>  (152) 
C16H9NO3

>  <LogP>  (152) 
4.19

>  <LUMO>  (152) 
-1.623

>  <MOL_ID>  (152) 
157

>  <Activity>  (152) 
1.34

$$$$
2-(acetylamino)-7-nitrofluorene
     RDKit          2D

 20 22  0  0  0  0  0  0  0  0999 V2000
    2.3787    3.4980    0.0000 C   0  0  0  0  0  0  0  0  0  0  0  0
    2.3787    2.0988    0.0000 C   0  0  0  0  0  0  0  0  0  0  0  0
    3.5913    1.3992    0.0000 C   0  0  0  0  0  0  0  0  0  0  0  0
    4.8040    2.0988    0.0000 C   0  0  0  0  0  0  0  0  0  0  0  0
    4.8040    3.4980    0.0000 C   0  0  0  0  0  0  0  0  0  0  0  0
    3.5913    4.1977    0.0000 C   0  0  0  0  0  0  0  0  0  0  0  0
    6.0166    1.3992    0.0000 C   0  0  0  0  0  0  0  0  0  0  0  0
    7.2293    2.0988    0.0000 C   0  0  0  0  0  0  0  0  0  0  0  0
    7.2293    3.4980    0.0000 C   0  0  0  0  0  0  0  0  0  0  0  0
    8.4420    1.3992    0.0000 C   0  0  0  0  0  0  0  0  0  0  0  0
    9.6546    2.0988    0.0000 C   0  0  0  0  0  0  0  0  0  0  0  0
    9.6546    3.4980    0.0000 C   0  0  0  0  0  0  0  0  0  0  0  0
    8.4420    4.1977    0.0000 C   0  0  0  0  0  0  0  0  0  0  0  0
    1.1660    1.3992    0.0000 N   0  0  0  0  0  0  0  0  0  0  0  0
   -0.0000    2.0988    0.0000 O   0  0  0  0  0  0  0  0  0  0  0  0
    1.1660    0.0000    0.0000 O   0  0  0  0  0  0  0  0  0  0  0  0
   10.8673    1.3992    0.0000 N   0  0  0  0  0  2  0  0  0  0  0  0
   12.0799    2.0988    0.0000 C   0  0  0  0  0  0  0  0  0  0  0  0
   12.0799    3.4980    0.0000 O   0  0  0  0  0  0  0  0  0  0  0  0
   13.2926    1.3992    0.0000 C   0  0  0  0  0  0  0  0  0  0  0  0
  1  2  2  0
  2  3  1  0
  3  4  2  0
  4  5  1  0
  5  6  2  0
  1  6  1  0
  4  7  1  0
  7  8  1  0
  8  9  2  0
  5  9  1  0
  8 10  1  0
 10 11  2  0
 11 12  1  0
 12 13  2  0
  9 13  1  0
  2 14  1  0
 14 15  1  0
 14 16  2  0
 11 17  1  0
 17 18  1  0
 18 19  2  0
 18 20  1  0
M  CHG  2  14   1  15  -1
M  RAD  1  17   2
M  END
>  <Compound Name>  (153) 
2-(acetylamino)-7-nitrofluorene

>  <Formula>  (153) 
C15H12N2O3

>  <LogP>  (153) 
3.08

>  <LUMO>  (153) 
-1.34

>  <MOL_ID>  (153) 
158

>  <Activity>  (153) 
2.85

$$$$
8-hydroxy-1-nitropyrene
     RDKit          2D

 20 23  0  0  0  0  0  0  0  0999 V2000
    1.1660    2.0989    0.0000 C   0  0  0  0  0  0  0  0  0  0  0  0
    1.1660    0.6996    0.0000 C   0  0  0  0  0  0  0  0  0  0  0  0
    2.3787   -0.0000    0.0000 C   0  0  0  0  0  0  0  0  0  0  0  0
    3.5914    0.6996    0.0000 C   0  0  0  0  0  0  0  0  0  0  0  0
    3.5914    2.0989    0.0000 C   0  0  0  0  0  0  0  0  0  0  0  0
    2.3787    2.7985    0.0000 C   0  0  0  0  0  0  0  0  0  0  0  0
    4.8040    2.7985    0.0000 C   0  0  0  0  0  0  0  0  0  0  0  0
    4.8040    4.1977    0.0000 C   0  0  0  0  0  0  0  0  0  0  0  0
    3.5914    4.8973    0.0000 C   0  0  0  0  0  0  0  0  0  0  0  0
    2.3787    4.1977    0.0000 C   0  0  0  0  0  0  0  0  0  0  0  0
    6.0167    2.0989    0.0000 C   0  0  0  0  0  0  0  0  0  0  0  0
    7.2294    2.7985    0.0000 C   0  0  0  0  0  0  0  0  0  0  0  0
    7.2294    4.1977    0.0000 C   0  0  0  0  0  0  0  0  0  0  0  0
    6.0167    4.8973    0.0000 C   0  0  0  0  0  0  0  0  0  0  0  0
    4.8040   -0.0000    0.0000 C   0  0  0  0  0  0  0  0  0  0  0  0
    6.0167    0.6996    0.0000 C   0  0  0  0  0  0  0  0  0  0  0  0
    6.0167    6.2966    0.0000 N   0  0  0  0  0  0  0  0  0  0  0  0
    7.2294    6.9495    0.0000 O   0  0  0  0  0  0  0  0  0  0  0  0
    4.8040    6.9495    0.0000 O   0  0  0  0  0  0  0  0  0  0  0  0
   -0.0000    2.7985    0.0000 O   0  0  0  0  0  0  0  0  0  0  0  0
  1  2  2  0
  2  3  1  0
  3  4  2  0
  4  5  1  0
  5  6  2  0
  1  6  1  0
  5  7  1  0
  7  8  2  0
  8  9  1  0
  9 10  2  0
  6 10  1  0
  7 11  1  0
 11 12  2  0
 12 13  1  0
 13 14  2  0
  8 14  1  0
  4 15  1  0
 15 16  2  0
 11 16  1  0
 14 17  1  0
 17 18  1  0
 17 19  2  0
  1 20  1  0
M  CHG  2  17   1  18  -1
M  END
>  <Compound Name>  (154) 
8-hydroxy-1-nitropyrene

>  <Formula>  (154) 
C16H9NO3

>  <LogP>  (154) 
4.19

>  <LUMO>  (154) 
-1.742

>  <MOL_ID>  (154) 
159

>  <Activity>  (154) 
1.49

$$$$
2-bromo-4,6-dinitroaniline
     RDKit          2D

 14 14  0  0  0  0  0  0  0  0999 V2000
    2.0522    3.6380    0.0000 C   0  0  0  0  0  0  0  0  0  0  0  0
    2.7518    2.4253    0.0000 C   0  0  0  0  0  0  0  0  0  0  0  0
    4.1510    2.4253    0.0000 C   0  0  0  0  0  0  0  0  0  0  0  0
    4.8506    3.6380    0.0000 C   0  0  0  0  0  0  0  0  0  0  0  0
    4.1510    4.8506    0.0000 C   0  0  0  0  0  0  0  0  0  0  0  0
    2.7518    4.8506    0.0000 C   0  0  0  0  0  0  0  0  0  0  0  0
    6.2499    3.6380    0.0000 N   0  0  0  0  0  0  0  0  0  0  0  0
    4.8506    6.0633    0.0000 Br  0  0  0  0  0  0  0  0  0  0  0  0
    0.6530    3.6380    0.0000 N   0  0  0  0  0  0  0  0  0  0  0  0
   -0.0000    4.8506    0.0000 O   0  0  0  0  0  0  0  0  0  0  0  0
   -0.0000    2.4253    0.0000 O   0  0  0  0  0  0  0  0  0  0  0  0
    4.8506    1.2127    0.0000 N   0  0  0  0  0  0  0  0  0  0  0  0
    4.1510   -0.0000    0.0000 O   0  0  0  0  0  0  0  0  0  0  0  0
    6.2499    1.2127    0.0000 O   0  0  0  0  0  0  0  0  0  0  0  0
  1  2  2  0
  2  3  1  0
  3  4  2  0
  4  5  1  0
  5  6  2  0
  1  6  1  0
  4  7  1  0
  5  8  1  0
  1  9  1  0
  9 10  1  0
  9 11  2  0
  3 12  1  0
 12 13  1  0
 12 14  2  0
M  CHG  4   9   1  10  -1  12   1  13  -1
M  END
>  <Compound Name>  (155) 
2-bromo-4,6-dinitroaniline

>  <Formula>  (155) 
C6H4BrN3O4

>  <LogP>  (155) 
2.78

>  <LUMO>  (155) 
-1.691

>  <MOL_ID>  (155) 
160

>  <Activity>  (155) 
-1.32

$$$$
1,6-dinitrobenzo[e]pyrene
     RDKit          2D

 26 30  0  0  0  0  0  0  0  0999 V2000
    0.0000    4.1977    0.0000 C   0  0  0  0  0  0  0  0  0  0  0  0
    0.0000    2.7985    0.0000 C   0  0  0  0  0  0  0  0  0  0  0  0
    1.1660    2.0989    0.0000 C   0  0  0  0  0  0  0  0  0  0  0  0
    2.3787    2.7985    0.0000 C   0  0  0  0  0  0  0  0  0  0  0  0
    2.3787    4.1977    0.0000 C   0  0  0  0  0  0  0  0  0  0  0  0
    1.1660    4.8973    0.0000 C   0  0  0  0  0  0  0  0  0  0  0  0
    3.5914    4.8973    0.0000 C   0  0  0  0  0  0  0  0  0  0  0  0
    3.5914    6.2966    0.0000 C   0  0  0  0  0  0  0  0  0  0  0  0
    2.3787    6.9962    0.0000 C   0  0  0  0  0  0  0  0  0  0  0  0
    1.1660    6.2966    0.0000 C   0  0  0  0  0  0  0  0  0  0  0  0
    4.8040    4.1977    0.0000 C   0  0  0  0  0  0  0  0  0  0  0  0
    6.0167    4.8973    0.0000 C   0  0  0  0  0  0  0  0  0  0  0  0
    6.0167    6.2966    0.0000 C   0  0  0  0  0  0  0  0  0  0  0  0
    4.8040    6.9962    0.0000 C   0  0  0  0  0  0  0  0  0  0  0  0
    3.5914    2.0989    0.0000 C   0  0  0  0  0  0  0  0  0  0  0  0
    4.8040    2.7985    0.0000 C   0  0  0  0  0  0  0  0  0  0  0  0
    2.3787    8.3954    0.0000 C   0  0  0  0  0  0  0  0  0  0  0  0
    1.1660    9.0950    0.0000 C   0  0  0  0  0  0  0  0  0  0  0  0
    0.0000    8.3954    0.0000 C   0  0  0  0  0  0  0  0  0  0  0  0
    0.0000    6.9962    0.0000 C   0  0  0  0  0  0  0  0  0  0  0  0
    4.8040    8.3954    0.0000 N   0  0  0  0  0  0  0  0  0  0  0  0
    6.0167    9.0950    0.0000 O   0  0  0  0  0  0  0  0  0  0  0  0
    3.5914    9.0950    0.0000 O   0  0  0  0  0  0  0  0  0  0  0  0
    1.1660    0.6996    0.0000 N   0  0  0  0  0  0  0  0  0  0  0  0
    0.0000    0.0000    0.0000 O   0  0  0  0  0  0  0  0  0  0  0  0
    2.3787    0.0000    0.0000 O   0  0  0  0  0  0  0  0  0  0  0  0
  1  2  2  0
  2  3  1  0
  3  4  2  0
  4  5  1  0
  5  6  2  0
  1  6  1  0
  5  7  1  0
  7  8  2  0
  8  9  1  0
  9 10  2  0
  6 10  1  0
  7 11  1  0
 11 12  2  0
 12 13  1  0
 13 14  2  0
  8 14  1  0
  4 15  1  0
 15 16  2  0
 11 16  1  0
  9 17  1  0
 17 18  2  0
 18 19  1  0
 19 20  2  0
 10 20  1  0
 14 21  1  0
 21 22  1  0
 21 23  2  0
  3 24  1  0
 24 25  1  0
 24 26  2  0
M  CHG  4  21   1  22  -1  24   1  25  -1
M  END
>  <Compound Name>  (156) 
1,6-dinitrobenzo[e]pyrene

>  <Formula>  (156) 
C20H10N2O4

>  <LogP>  (156) 
5.61

>  <LUMO>  (156) 
-2.221

>  <MOL_ID>  (156) 
161

>  <Activity>  (156) 
1.99

$$$$
3,4,3',4'-tetranitrobiphenyl
     RDKit          2D

 24 25  0  0  0  0  0  0  0  0999 V2000
    2.7518    2.4253    0.0000 C   0  0  0  0  0  0  0  0  0  0  0  0
    2.0522    1.2127    0.0000 C   0  0  0  0  0  0  0  0  0  0  0  0
    2.7518    0.0000    0.0000 C   0  0  0  0  0  0  0  0  0  0  0  0
    4.1510    0.0000    0.0000 C   0  0  0  0  0  0  0  0  0  0  0  0
    4.8506    1.2127    0.0000 C   0  0  0  0  0  0  0  0  0  0  0  0
    4.1510    2.4253    0.0000 C   0  0  0  0  0  0  0  0  0  0  0  0
    6.2499    1.2127    0.0000 C   0  0  0  0  0  0  0  0  0  0  0  0
    6.9495    0.0000    0.0000 C   0  0  0  0  0  0  0  0  0  0  0  0
    8.3487    0.0000    0.0000 C   0  0  0  0  0  0  0  0  0  0  0  0
    9.0483    1.2127    0.0000 C   0  0  0  0  0  0  0  0  0  0  0  0
    8.3487    2.4253    0.0000 C   0  0  0  0  0  0  0  0  0  0  0  0
    6.9495    2.4253    0.0000 C   0  0  0  0  0  0  0  0  0  0  0  0
    9.0483    3.6380    0.0000 N   0  0  0  0  0  0  0  0  0  0  0  0
   10.4475    3.6380    0.0000 O   0  0  0  0  0  0  0  0  0  0  0  0
    8.3487    4.8040    0.0000 O   0  0  0  0  0  0  0  0  0  0  0  0
   10.4475    1.2127    0.0000 N   0  0  0  0  0  0  0  0  0  0  0  0
   11.1472    0.0000    0.0000 O   0  0  0  0  0  0  0  0  0  0  0  0
   11.1472    2.4253    0.0000 O   0  0  0  0  0  0  0  0  0  0  0  0
    2.0522    3.6380    0.0000 N   0  0  0  0  0  0  0  0  0  0  0  0
    2.7518    4.8040    0.0000 O   0  0  0  0  0  0  0  0  0  0  0  0
    0.6530    3.6380    0.0000 O   0  0  0  0  0  0  0  0  0  0  0  0
    0.6530    1.2127    0.0000 N   0  0  0  0  0  0  0  0  0  0  0  0
   -0.0000    2.4253    0.0000 O   0  0  0  0  0  0  0  0  0  0  0  0
   -0.0000    0.0000    0.0000 O   0  0  0  0  0  0  0  0  0  0  0  0
  1  2  2  0
  2  3  1  0
  3  4  2  0
  4  5  1  0
  5  6  2  0
  1  6  1  0
  5  7  1  0
  7  8  2  0
  8  9  1  0
  9 10  2  0
 10 11  1  0
 11 12  2  0
  7 12  1  0
 11 13  1  0
 13 14  1  0
 13 15  2  0
 10 16  1  0
 16 17  1  0
 16 18  2  0
  1 19  1  0
 19 20  1  0
 19 21  2  0
  2 22  1  0
 22 23  1  0
 22 24  2  0
M  CHG  8  13   1  14  -1  16   1  17  -1  19   1  20  -1  22   1  23  -1
M  END
>  <Compound Name>  (157) 
3,4,3',4'-tetranitrobiphenyl

>  <Formula>  (157) 
C12H6N4O8

>  <LogP>  (157) 
3

>  <LUMO>  (157) 
-2.687

>  <MOL_ID>  (157) 
162

>  <Activity>  (157) 
2.85

$$$$
2,7-dinitropyrene
     RDKit          2D

 22 25  0  0  0  0  0  0  0  0999 V2000
    2.3787    3.4981    0.0000 C   0  0  0  0  0  0  0  0  0  0  0  0
    2.3787    2.0988    0.0000 C   0  0  0  0  0  0  0  0  0  0  0  0
    3.5913    1.3992    0.0000 C   0  0  0  0  0  0  0  0  0  0  0  0
    4.8040    2.0988    0.0000 C   0  0  0  0  0  0  0  0  0  0  0  0
    4.8040    3.4981    0.0000 C   0  0  0  0  0  0  0  0  0  0  0  0
    3.5913    4.1977    0.0000 C   0  0  0  0  0  0  0  0  0  0  0  0
    6.0167    4.1977    0.0000 C   0  0  0  0  0  0  0  0  0  0  0  0
    6.0167    5.5969    0.0000 C   0  0  0  0  0  0  0  0  0  0  0  0
    4.8040    6.2965    0.0000 C   0  0  0  0  0  0  0  0  0  0  0  0
    3.5913    5.5969    0.0000 C   0  0  0  0  0  0  0  0  0  0  0  0
    7.2293    3.4981    0.0000 C   0  0  0  0  0  0  0  0  0  0  0  0
    8.4420    4.1977    0.0000 C   0  0  0  0  0  0  0  0  0  0  0  0
    8.4420    5.5969    0.0000 C   0  0  0  0  0  0  0  0  0  0  0  0
    7.2293    6.2965    0.0000 C   0  0  0  0  0  0  0  0  0  0  0  0
    6.0167    1.3992    0.0000 C   0  0  0  0  0  0  0  0  0  0  0  0
    7.2293    2.0988    0.0000 C   0  0  0  0  0  0  0  0  0  0  0  0
    9.6546    6.2965    0.0000 N   0  0  0  0  0  0  0  0  0  0  0  0
   10.8673    5.5969    0.0000 O   0  0  0  0  0  0  0  0  0  0  0  0
    9.6546    7.6957    0.0000 O   0  0  0  0  0  0  0  0  0  0  0  0
    1.1660    1.3992    0.0000 N   0  0  0  0  0  0  0  0  0  0  0  0
    0.0000    2.0988    0.0000 O   0  0  0  0  0  0  0  0  0  0  0  0
    1.1660   -0.0000    0.0000 O   0  0  0  0  0  0  0  0  0  0  0  0
  1  2  2  0
  2  3  1  0
  3  4  2  0
  4  5  1  0
  5  6  2  0
  1  6  1  0
  5  7  1  0
  7  8  2  0
  8  9  1  0
  9 10  2  0
  6 10  1  0
  7 11  1  0
 11 12  2  0
 12 13  1  0
 13 14  2  0
  8 14  1  0
  4 15  1  0
 15 16  2  0
 11 16  1  0
 13 17  1  0
 17 18  1  0
 17 19  2  0
  2 20  1  0
 20 21  1  0
 20 22  2  0
M  CHG  4  17   1  18  -1  20   1  21  -1
M  END
>  <Compound Name>  (158) 
2,7-dinitropyrene

>  <Formula>  (158) 
C16H8N2O4

>  <LogP>  (158) 
4.44

>  <LUMO>  (158) 
-1.974

>  <MOL_ID>  (158) 
163

>  <Activity>  (158) 
4.58

$$$$
1,3-dinitropyrene
     RDKit          2D

 22 25  0  0  0  0  0  0  0  0999 V2000
   -0.0000    2.0988    0.0000 C   0  0  0  0  0  0  0  0  0  0  0  0
   -0.0000    0.6996    0.0000 C   0  0  0  0  0  0  0  0  0  0  0  0
    1.1660    0.0000    0.0000 C   0  0  0  0  0  0  0  0  0  0  0  0
    2.3787    0.6996    0.0000 C   0  0  0  0  0  0  0  0  0  0  0  0
    2.3787    2.0988    0.0000 C   0  0  0  0  0  0  0  0  0  0  0  0
    1.1660    2.7984    0.0000 C   0  0  0  0  0  0  0  0  0  0  0  0
    3.5913    2.7984    0.0000 C   0  0  0  0  0  0  0  0  0  0  0  0
    3.5913    4.1977    0.0000 C   0  0  0  0  0  0  0  0  0  0  0  0
    2.3787    4.8973    0.0000 C   0  0  0  0  0  0  0  0  0  0  0  0
    1.1660    4.1977    0.0000 C   0  0  0  0  0  0  0  0  0  0  0  0
    4.8040    2.0988    0.0000 C   0  0  0  0  0  0  0  0  0  0  0  0
    6.0167    2.7984    0.0000 C   0  0  0  0  0  0  0  0  0  0  0  0
    6.0167    4.1977    0.0000 C   0  0  0  0  0  0  0  0  0  0  0  0
    4.8040    4.8973    0.0000 C   0  0  0  0  0  0  0  0  0  0  0  0
    3.5913    0.0000    0.0000 C   0  0  0  0  0  0  0  0  0  0  0  0
    4.8040    0.6996    0.0000 C   0  0  0  0  0  0  0  0  0  0  0  0
    4.8040    6.2965    0.0000 N   0  0  0  0  0  0  0  0  0  0  0  0
    6.0167    6.9495    0.0000 O   0  0  0  0  0  0  0  0  0  0  0  0
    3.5913    6.9495    0.0000 O   0  0  0  0  0  0  0  0  0  0  0  0
    7.2293    2.0988    0.0000 N   0  0  0  0  0  0  0  0  0  0  0  0
    7.2293    0.6996    0.0000 O   0  0  0  0  0  0  0  0  0  0  0  0
    8.4420    2.7984    0.0000 O   0  0  0  0  0  0  0  0  0  0  0  0
  1  2  2  0
  2  3  1  0
  3  4  2  0
  4  5  1  0
  5  6  2  0
  1  6  1  0
  5  7  1  0
  7  8  2  0
  8  9  1  0
  9 10  2  0
  6 10  1  0
  7 11  1  0
 11 12  2  0
 12 13  1  0
 13 14  2  0
  8 14  1  0
  4 15  1  0
 15 16  2  0
 11 16  1  0
 14 17  1  0
 17 18  1  0
 17 19  2  0
 12 20  1  0
 20 21  1  0
 20 22  2  0
M  CHG  4  17   1  18  -1  20   1  21  -1
M  END
>  <Compound Name>  (159) 
1,3-dinitropyrene

>  <Formula>  (159) 
C16H8N2O4

>  <LogP>  (159) 
4.44

>  <LUMO>  (159) 
-2.306

>  <MOL_ID>  (159) 
164

>  <Activity>  (159) 
5.04

$$$$
8-nitrofluoranthene
     RDKit          2D

 19 22  0  0  0  0  0  0  0  0999 V2000
    2.7518    2.0988    0.0000 C   0  0  0  0  0  0  0  0  0  0  0  0
    2.7518    0.6996    0.0000 C   0  0  0  0  0  0  0  0  0  0  0  0
    3.9645   -0.0000    0.0000 C   0  0  0  0  0  0  0  0  0  0  0  0
    5.1771    0.6996    0.0000 C   0  0  0  0  0  0  0  0  0  0  0  0
    5.1771    2.0988    0.0000 C   0  0  0  0  0  0  0  0  0  0  0  0
    3.9645    2.7984    0.0000 C   0  0  0  0  0  0  0  0  0  0  0  0
    1.5391    2.7984    0.0000 C   0  0  0  0  0  0  0  0  0  0  0  0
    0.3265    2.0988    0.0000 C   0  0  0  0  0  0  0  0  0  0  0  0
    0.3265    0.6996    0.0000 C   0  0  0  0  0  0  0  0  0  0  0  0
    1.5391   -0.0000    0.0000 C   0  0  0  0  0  0  0  0  0  0  0  0
    3.4514    4.1977    0.0000 C   0  0  0  0  0  0  0  0  0  0  0  0
    2.0522    4.1977    0.0000 C   0  0  0  0  0  0  0  0  0  0  0  0
    4.1510    5.4103    0.0000 C   0  0  0  0  0  0  0  0  0  0  0  0
    3.4514    6.6230    0.0000 C   0  0  0  0  0  0  0  0  0  0  0  0
    2.0522    6.6230    0.0000 C   0  0  0  0  0  0  0  0  0  0  0  0
    1.3526    5.4103    0.0000 C   0  0  0  0  0  0  0  0  0  0  0  0
    1.3526    7.8356    0.0000 N   0  0  0  0  0  0  0  0  0  0  0  0
    2.0522    9.0483    0.0000 O   0  0  0  0  0  0  0  0  0  0  0  0
   -0.0000    7.8356    0.0000 O   0  0  0  0  0  0  0  0  0  0  0  0
  1  2  1  0
  2  3  2  0
  3  4  1  0
  4  5  2  0
  5  6  1  0
  1  6  2  0
  1  7  1  0
  7  8  2  0
  8  9  1  0
  9 10  2  0
  2 10  1  0
  6 11  1  0
  7 12  1  0
 11 12  2  0
 11 13  1  0
 13 14  2  0
 14 15  1  0
 15 16  2  0
 12 16  1  0
 15 17  1  0
 17 18  1  0
 17 19  2  0
M  CHG  2  17   1  18  -1
M  END
>  <Compound Name>  (160) 
8-nitrofluoranthene

>  <Formula>  (160) 
C16H9NO2

>  <LogP>  (160) 
4.69

>  <LUMO>  (160) 
-1.522

>  <MOL_ID>  (160) 
165

>  <Activity>  (160) 
4.05

$$$$
1-nitro-3-acetoxypyrene
     RDKit          2D

 23 26  0  0  0  0  0  0  0  0999 V2000
   -0.0000    2.0988    0.0000 C   0  0  0  0  0  0  0  0  0  0  0  0
   -0.0000    0.6996    0.0000 C   0  0  0  0  0  0  0  0  0  0  0  0
    1.1660    0.0000    0.0000 C   0  0  0  0  0  0  0  0  0  0  0  0
    2.3787    0.6996    0.0000 C   0  0  0  0  0  0  0  0  0  0  0  0
    2.3787    2.0988    0.0000 C   0  0  0  0  0  0  0  0  0  0  0  0
    1.1660    2.7984    0.0000 C   0  0  0  0  0  0  0  0  0  0  0  0
    3.5913    2.7984    0.0000 C   0  0  0  0  0  0  0  0  0  0  0  0
    3.5913    4.1977    0.0000 C   0  0  0  0  0  0  0  0  0  0  0  0
    2.3787    4.8973    0.0000 C   0  0  0  0  0  0  0  0  0  0  0  0
    1.1660    4.1977    0.0000 C   0  0  0  0  0  0  0  0  0  0  0  0
    4.8040    2.0988    0.0000 C   0  0  0  0  0  0  0  0  0  0  0  0
    6.0167    2.7984    0.0000 C   0  0  0  0  0  0  0  0  0  0  0  0
    6.0167    4.1977    0.0000 C   0  0  0  0  0  0  0  0  0  0  0  0
    4.8040    4.8973    0.0000 C   0  0  0  0  0  0  0  0  0  0  0  0
    3.5913    0.0000    0.0000 C   0  0  0  0  0  0  0  0  0  0  0  0
    4.8040    0.6996    0.0000 C   0  0  0  0  0  0  0  0  0  0  0  0
    4.8040    6.2965    0.0000 N   0  0  0  0  0  0  0  0  0  0  0  0
    6.0167    6.9028    0.0000 O   0  0  0  0  0  0  0  0  0  0  0  0
    3.5913    6.9028    0.0000 O   0  0  0  0  0  0  0  0  0  0  0  0
    7.2293    2.0988    0.0000 O   0  0  0  0  0  0  0  0  0  0  0  0
    8.4420    2.7984    0.0000 C   0  0  0  0  0  0  0  0  0  0  0  0
    8.4420    4.1977    0.0000 O   0  0  0  0  0  0  0  0  0  0  0  0
    9.6546    2.0988    0.0000 C   0  0  0  0  0  0  0  0  0  0  0  0
  1  2  2  0
  2  3  1  0
  3  4  2  0
  4  5  1  0
  5  6  2  0
  1  6  1  0
  5  7  1  0
  7  8  2  0
  8  9  1  0
  9 10  2  0
  6 10  1  0
  7 11  1  0
 11 12  2  0
 12 13  1  0
 13 14  2  0
  8 14  1  0
  4 15  1  0
 15 16  2  0
 11 16  1  0
 14 17  1  0
 17 18  1  0
 17 19  2  0
 12 20  1  0
 20 21  1  0
 21 22  2  0
 21 23  1  0
M  CHG  2  17   1  18  -1
M  END
>  <Compound Name>  (161) 
1-nitro-3-acetoxypyrene

>  <Formula>  (161) 
C18H11NO4

>  <LogP>  (161) 
4.42

>  <LUMO>  (161) 
-1.709

>  <MOL_ID>  (161) 
166

>  <Activity>  (161) 
4.22

$$$$
1,6-dinitropyrene
     RDKit          2D

 22 25  0  0  0  0  0  0  0  0999 V2000
    0.0000    4.1977    0.0000 C   0  0  0  0  0  0  0  0  0  0  0  0
    0.0000    2.7985    0.0000 C   0  0  0  0  0  0  0  0  0  0  0  0
    1.1660    2.0989    0.0000 C   0  0  0  0  0  0  0  0  0  0  0  0
    2.3787    2.7985    0.0000 C   0  0  0  0  0  0  0  0  0  0  0  0
    2.3787    4.1977    0.0000 C   0  0  0  0  0  0  0  0  0  0  0  0
    1.1660    4.8973    0.0000 C   0  0  0  0  0  0  0  0  0  0  0  0
    3.5914    4.8973    0.0000 C   0  0  0  0  0  0  0  0  0  0  0  0
    3.5914    6.2966    0.0000 C   0  0  0  0  0  0  0  0  0  0  0  0
    2.3787    6.9962    0.0000 C   0  0  0  0  0  0  0  0  0  0  0  0
    1.1660    6.2966    0.0000 C   0  0  0  0  0  0  0  0  0  0  0  0
    4.8040    4.1977    0.0000 C   0  0  0  0  0  0  0  0  0  0  0  0
    6.0167    4.8973    0.0000 C   0  0  0  0  0  0  0  0  0  0  0  0
    6.0167    6.2966    0.0000 C   0  0  0  0  0  0  0  0  0  0  0  0
    4.8040    6.9962    0.0000 C   0  0  0  0  0  0  0  0  0  0  0  0
    3.5914    2.0989    0.0000 C   0  0  0  0  0  0  0  0  0  0  0  0
    4.8040    2.7985    0.0000 C   0  0  0  0  0  0  0  0  0  0  0  0
    4.8040    8.3954    0.0000 N   0  0  0  0  0  0  0  0  0  0  0  0
    6.0167    9.0950    0.0000 O   0  0  0  0  0  0  0  0  0  0  0  0
    3.5914    9.0950    0.0000 O   0  0  0  0  0  0  0  0  0  0  0  0
    1.1660    0.6996    0.0000 N   0  0  0  0  0  0  0  0  0  0  0  0
    0.0000    0.0000    0.0000 O   0  0  0  0  0  0  0  0  0  0  0  0
    2.3787    0.0000    0.0000 O   0  0  0  0  0  0  0  0  0  0  0  0
  1  2  2  0
  2  3  1  0
  3  4  2  0
  4  5  1  0
  5  6  2  0
  1  6  1  0
  5  7  1  0
  7  8  2  0
  8  9  1  0
  9 10  2  0
  6 10  1  0
  7 11  1  0
 11 12  2  0
 12 13  1  0
 13 14  2  0
  8 14  1  0
  4 15  1  0
 15 16  2  0
 11 16  1  0
 14 17  1  0
 17 18  1  0
 17 19  2  0
  3 20  1  0
 20 21  1  0
 20 22  2  0
M  CHG  4  17   1  18  -1  20   1  21  -1
M  END
>  <Compound Name>  (162) 
1,6-dinitropyrene

>  <Formula>  (162) 
C16H8N2O4

>  <LogP>  (162) 
4.44

>  <LUMO>  (162) 
-2.31

>  <MOL_ID>  (162) 
167

>  <Activity>  (162) 
5.06

$$$$
4-nitroanisole
     RDKit          2D

 11 11  0  0  0  0  0  0  0  0999 V2000
    2.0067    1.2133    0.0000 C   0  0  0  0  0  0  0  0  0  0  0  0
    2.7067   -0.0000    0.0000 C   0  0  0  0  0  0  0  0  0  0  0  0
    4.1067   -0.0000    0.0000 C   0  0  0  0  0  0  0  0  0  0  0  0
    4.8067    1.2133    0.0000 C   0  0  0  0  0  0  0  0  0  0  0  0
    4.1067    2.4267    0.0000 C   0  0  0  0  0  0  0  0  0  0  0  0
    2.7067    2.4267    0.0000 C   0  0  0  0  0  0  0  0  0  0  0  0
    6.2067    1.2133    0.0000 O   0  0  0  0  0  0  0  0  0  0  0  0
    7.1867    2.2400    0.0000 C   0  0  0  0  0  0  0  0  0  0  0  0
    0.6067    1.2133    0.0000 N   0  0  0  0  0  0  0  0  0  0  0  0
    0.0000    2.4267    0.0000 O   0  0  0  0  0  0  0  0  0  0  0  0
    0.0000   -0.0000    0.0000 O   0  0  0  0  0  0  0  0  0  0  0  0
  1  2  2  0
  2  3  1  0
  3  4  2  0
  4  5  1  0
  5  6  2  0
  1  6  1  0
  4  7  1  0
  7  8  1  0
  1  9  1  0
  9 10  1  0
  9 11  2  0
M  CHG  2   9   1  10  -1
M  END
>  <Compound Name>  (163) 
4-nitroanisole

>  <Formula>  (163) 
C7H7NO3

>  <LogP>  (163) 
2.03

>  <LUMO>  (163) 
-1.112

>  <MOL_ID>  (163) 
168

>  <Activity>  (163) 
-2.7

$$$$
2,4-dinitro-1-fluorobenzene
     RDKit          2D

 13 13  0  0  0  0  0  0  0  0999 V2000
    2.0533    1.2133    0.0000 C   0  0  0  0  0  0  0  0  0  0  0  0
    2.7533    0.0000    0.0000 C   0  0  0  0  0  0  0  0  0  0  0  0
    4.1533    0.0000    0.0000 C   0  0  0  0  0  0  0  0  0  0  0  0
    4.8533    1.2133    0.0000 C   0  0  0  0  0  0  0  0  0  0  0  0
    4.1533    2.4267    0.0000 C   0  0  0  0  0  0  0  0  0  0  0  0
    2.7533    2.4267    0.0000 C   0  0  0  0  0  0  0  0  0  0  0  0
    4.8533    3.6400    0.0000 N   0  0  0  0  0  0  0  0  0  0  0  0
    6.2533    3.6400    0.0000 O   0  0  0  0  0  0  0  0  0  0  0  0
    4.1533    4.8067    0.0000 O   0  0  0  0  0  0  0  0  0  0  0  0
    0.6533    1.2133    0.0000 N   0  0  0  0  0  0  0  0  0  0  0  0
   -0.0000    2.4267    0.0000 O   0  0  0  0  0  0  0  0  0  0  0  0
   -0.0000    0.0000    0.0000 O   0  0  0  0  0  0  0  0  0  0  0  0
    6.2533    1.2133    0.0000 F   0  0  0  0  0  0  0  0  0  0  0  0
  1  2  2  0
  2  3  1  0
  3  4  2  0
  4  5  1  0
  5  6  2  0
  1  6  1  0
  5  7  1  0
  7  8  1  0
  7  9  2  0
  1 10  1  0
 10 11  1  0
 10 12  2  0
  4 13  1  0
M  CHG  4   7   1   8  -1  10   1  11  -1
M  END
>  <Compound Name>  (164) 
2,4-dinitro-1-fluorobenzene

>  <Formula>  (164) 
C6H3FN2O4

>  <LogP>  (164) 
1.49

>  <LUMO>  (164) 
-2.17

>  <MOL_ID>  (164) 
169

>  <Activity>  (164) 
1.2

$$$$
1-nitrophenazine
     RDKit          2D

 17 19  0  0  0  0  0  0  0  0999 V2000
    0.0000    2.0988    0.0000 C   0  0  0  0  0  0  0  0  0  0  0  0
    0.0000    0.6996    0.0000 C   0  0  0  0  0  0  0  0  0  0  0  0
    1.1660   -0.0000    0.0000 C   0  0  0  0  0  0  0  0  0  0  0  0
    2.3787    0.6996    0.0000 C   0  0  0  0  0  0  0  0  0  0  0  0
    2.3787    2.0988    0.0000 C   0  0  0  0  0  0  0  0  0  0  0  0
    1.1660    2.7985    0.0000 C   0  0  0  0  0  0  0  0  0  0  0  0
    3.5913   -0.0000    0.0000 N   0  0  0  0  0  0  0  0  0  0  0  0
    4.8040    0.6996    0.0000 C   0  0  0  0  0  0  0  0  0  0  0  0
    4.8040    2.0988    0.0000 C   0  0  0  0  0  0  0  0  0  0  0  0
    3.5913    2.7985    0.0000 N   0  0  0  0  0  0  0  0  0  0  0  0
    6.0167   -0.0000    0.0000 C   0  0  0  0  0  0  0  0  0  0  0  0
    7.2293    0.6996    0.0000 C   0  0  0  0  0  0  0  0  0  0  0  0
    7.2293    2.0988    0.0000 C   0  0  0  0  0  0  0  0  0  0  0  0
    6.0167    2.7985    0.0000 C   0  0  0  0  0  0  0  0  0  0  0  0
    6.0167    4.1977    0.0000 N   0  0  0  0  0  0  0  0  0  0  0  0
    7.2293    4.8507    0.0000 O   0  0  0  0  0  0  0  0  0  0  0  0
    4.8040    4.8507    0.0000 O   0  0  0  0  0  0  0  0  0  0  0  0
  1  2  2  0
  2  3  1  0
  3  4  2  0
  4  5  1  0
  5  6  2  0
  1  6  1  0
  4  7  1  0
  7  8  2  0
  8  9  1  0
  9 10  2  0
  5 10  1  0
  8 11  1  0
 11 12  2  0
 12 13  1  0
 13 14  2  0
  9 14  1  0
 14 15  1  0
 15 16  1  0
 15 17  2  0
M  CHG  2  15   1  16  -1
M  END
>  <Compound Name>  (165) 
1-nitrophenazine

>  <Formula>  (165) 
C12H7N3O2

>  <LogP>  (165) 
2.52

>  <LUMO>  (165) 
-2.113

>  <MOL_ID>  (165) 
170

>  <Activity>  (165) 
0.87

$$$$
2,4,2',4'-tetranitrobiphenyl
     RDKit          2D

 24 25  0  0  0  0  0  0  0  0999 V2000
    2.7518    4.8506    0.0000 C   0  0  0  0  0  0  0  0  0  0  0  0
    2.0522    3.6380    0.0000 C   0  0  0  0  0  0  0  0  0  0  0  0
    2.7518    2.4253    0.0000 C   0  0  0  0  0  0  0  0  0  0  0  0
    4.1510    2.4253    0.0000 C   0  0  0  0  0  0  0  0  0  0  0  0
    4.8506    3.6380    0.0000 C   0  0  0  0  0  0  0  0  0  0  0  0
    4.1510    4.8506    0.0000 C   0  0  0  0  0  0  0  0  0  0  0  0
    6.2499    3.6380    0.0000 C   0  0  0  0  0  0  0  0  0  0  0  0
    6.9495    2.4253    0.0000 C   0  0  0  0  0  0  0  0  0  0  0  0
    8.3487    2.4253    0.0000 C   0  0  0  0  0  0  0  0  0  0  0  0
    9.0483    3.6380    0.0000 C   0  0  0  0  0  0  0  0  0  0  0  0
    8.3487    4.8506    0.0000 C   0  0  0  0  0  0  0  0  0  0  0  0
    6.9495    4.8506    0.0000 C   0  0  0  0  0  0  0  0  0  0  0  0
    6.2499    6.0633    0.0000 N   0  0  0  0  0  0  0  0  0  0  0  0
    6.9495    7.2760    0.0000 O   0  0  0  0  0  0  0  0  0  0  0  0
    4.8506    6.0633    0.0000 O   0  0  0  0  0  0  0  0  0  0  0  0
   10.4475    3.6380    0.0000 N   0  0  0  0  0  0  0  0  0  0  0  0
   11.1471    2.4253    0.0000 O   0  0  0  0  0  0  0  0  0  0  0  0
   11.1471    4.8506    0.0000 O   0  0  0  0  0  0  0  0  0  0  0  0
    4.8506    1.2127    0.0000 N   0  0  0  0  0  0  0  0  0  0  0  0
    4.1510    0.0000    0.0000 O   0  0  0  0  0  0  0  0  0  0  0  0
    6.2499    1.2127    0.0000 O   0  0  0  0  0  0  0  0  0  0  0  0
    0.6530    3.6380    0.0000 N   0  0  0  0  0  0  0  0  0  0  0  0
   -0.0000    4.8506    0.0000 O   0  0  0  0  0  0  0  0  0  0  0  0
   -0.0000    2.4253    0.0000 O   0  0  0  0  0  0  0  0  0  0  0  0
  1  2  2  0
  2  3  1  0
  3  4  2  0
  4  5  1  0
  5  6  2  0
  1  6  1  0
  5  7  1  0
  7  8  2  0
  8  9  1  0
  9 10  2  0
 10 11  1  0
 11 12  2  0
  7 12  1  0
 12 13  1  0
 13 14  1  0
 13 15  2  0
 10 16  1  0
 16 17  1  0
 16 18  2  0
  4 19  1  0
 19 20  1  0
 19 21  2  0
  2 22  1  0
 22 23  1  0
 22 24  2  0
M  CHG  8  13   1  14  -1  16   1  17  -1  19   1  20  -1  22   1  23  -1
M  END
>  <Compound Name>  (166) 
2,4,2',4'-tetranitrobiphenyl

>  <Formula>  (166) 
C12H6N4O8

>  <LogP>  (166) 
3

>  <LUMO>  (166) 
-2.508

>  <MOL_ID>  (166) 
171

>  <Activity>  (166) 
2.66

$$$$
3,4,4'-trinitrobiphenyl
     RDKit          2D

 21 22  0  0  0  0  0  0  0  0999 V2000
    2.7518    2.4253    0.0000 C   0  0  0  0  0  0  0  0  0  0  0  0
    2.0522    1.2127    0.0000 C   0  0  0  0  0  0  0  0  0  0  0  0
    2.7518    0.0000    0.0000 C   0  0  0  0  0  0  0  0  0  0  0  0
    4.1510    0.0000    0.0000 C   0  0  0  0  0  0  0  0  0  0  0  0
    4.8506    1.2127    0.0000 C   0  0  0  0  0  0  0  0  0  0  0  0
    4.1510    2.4253    0.0000 C   0  0  0  0  0  0  0  0  0  0  0  0
    6.2499    1.2127    0.0000 C   0  0  0  0  0  0  0  0  0  0  0  0
    6.9495    0.0000    0.0000 C   0  0  0  0  0  0  0  0  0  0  0  0
    8.3487    0.0000    0.0000 C   0  0  0  0  0  0  0  0  0  0  0  0
    9.0483    1.2127    0.0000 C   0  0  0  0  0  0  0  0  0  0  0  0
    8.3487    2.4253    0.0000 C   0  0  0  0  0  0  0  0  0  0  0  0
    6.9495    2.4253    0.0000 C   0  0  0  0  0  0  0  0  0  0  0  0
    9.0483    3.6380    0.0000 N   0  0  0  0  0  0  0  0  0  0  0  0
   10.4475    3.6380    0.0000 O   0  0  0  0  0  0  0  0  0  0  0  0
    8.3487    4.8040    0.0000 O   0  0  0  0  0  0  0  0  0  0  0  0
   10.4475    1.2127    0.0000 N   0  0  0  0  0  0  0  0  0  0  0  0
   11.1472    0.0000    0.0000 O   0  0  0  0  0  0  0  0  0  0  0  0
   11.1472    2.4253    0.0000 O   0  0  0  0  0  0  0  0  0  0  0  0
    0.6530    1.2127    0.0000 N   0  0  0  0  0  0  0  0  0  0  0  0
   -0.0000    2.4253    0.0000 O   0  0  0  0  0  0  0  0  0  0  0  0
   -0.0000    0.0000    0.0000 O   0  0  0  0  0  0  0  0  0  0  0  0
  1  2  2  0
  2  3  1  0
  3  4  2  0
  4  5  1  0
  5  6  2  0
  1  6  1  0
  5  7  1  0
  7  8  2  0
  8  9  1  0
  9 10  2  0
 10 11  1  0
 11 12  2  0
  7 12  1  0
 11 13  1  0
 13 14  1  0
 13 15  2  0
 10 16  1  0
 16 17  1  0
 16 18  2  0
  2 19  1  0
 19 20  1  0
 19 21  2  0
M  CHG  6  13   1  14  -1  16   1  17  -1  19   1  20  -1
M  END
>  <Compound Name>  (167) 
3,4,4'-trinitrobiphenyl

>  <Formula>  (167) 
C12H7N3O6

>  <LogP>  (167) 
3.26

>  <LUMO>  (167) 
-2.328

>  <MOL_ID>  (167) 
173

>  <Activity>  (167) 
2.6

$$$$
3,9-dinitrofluoranthene
     RDKit          2D

 22 25  0  0  0  0  0  0  0  0999 V2000
    2.3800    4.2000    0.0000 C   0  0  0  0  0  0  0  0  0  0  0  0
    2.3800    2.8000    0.0000 C   0  0  0  0  0  0  0  0  0  0  0  0
    3.5933    2.1000    0.0000 C   0  0  0  0  0  0  0  0  0  0  0  0
    4.8066    2.8000    0.0000 C   0  0  0  0  0  0  0  0  0  0  0  0
    4.8066    4.2000    0.0000 C   0  0  0  0  0  0  0  0  0  0  0  0
    3.5933    4.9000    0.0000 C   0  0  0  0  0  0  0  0  0  0  0  0
    1.1667    4.9000    0.0000 C   0  0  0  0  0  0  0  0  0  0  0  0
    0.0000    4.2000    0.0000 C   0  0  0  0  0  0  0  0  0  0  0  0
    0.0000    2.8000    0.0000 C   0  0  0  0  0  0  0  0  0  0  0  0
    1.1667    2.1000    0.0000 C   0  0  0  0  0  0  0  0  0  0  0  0
    2.9400    6.3000    0.0000 C   0  0  0  0  0  0  0  0  0  0  0  0
    1.6333    6.3000    0.0000 C   0  0  0  0  0  0  0  0  0  0  0  0
    3.5933    7.4200    0.0000 C   0  0  0  0  0  0  0  0  0  0  0  0
    2.9400    8.5400    0.0000 C   0  0  0  0  0  0  0  0  0  0  0  0
    1.6333    8.5400    0.0000 C   0  0  0  0  0  0  0  0  0  0  0  0
    0.9800    7.4200    0.0000 C   0  0  0  0  0  0  0  0  0  0  0  0
    3.5933    0.7000    0.0000 N   0  0  0  0  0  0  0  0  0  0  0  0
    2.3800   -0.0000    0.0000 O   0  0  0  0  0  0  0  0  0  0  0  0
    4.8066   -0.0000    0.0000 O   0  0  0  0  0  0  0  0  0  0  0  0
    3.6400    9.7533    0.0000 N   0  0  0  0  0  0  0  0  0  0  0  0
    5.0400    9.7533    0.0000 O   0  0  0  0  0  0  0  0  0  0  0  0
    2.9400   10.9199    0.0000 O   0  0  0  0  0  0  0  0  0  0  0  0
  1  2  1  0
  2  3  2  0
  3  4  1  0
  4  5  2  0
  5  6  1  0
  1  6  2  0
  1  7  1  0
  7  8  2  0
  8  9  1  0
  9 10  2  0
  2 10  1  0
  6 11  1  0
  7 12  1  0
 11 12  2  0
 11 13  1  0
 13 14  2  0
 14 15  1  0
 15 16  2  0
 12 16  1  0
  3 17  1  0
 17 18  1  0
 17 19  2  0
 14 20  1  0
 20 21  1  0
 20 22  2  0
M  CHG  4  17   1  18  -1  20   1  21  -1
M  END
>  <Compound Name>  (168) 
3,9-dinitrofluoranthene

>  <Formula>  (168) 
C16H8N2O4

>  <LogP>  (168) 
4.44

>  <LUMO>  (168) 
-2.209

>  <MOL_ID>  (168) 
174

>  <Activity>  (168) 
5.02

$$$$
3-nitro-1,2,4,7,8-pentachlorodibenzo-1,4-dioxin
     RDKit          2D

 22 24  0  0  0  0  0  0  0  0999 V2000
    1.1660    3.4981    0.0000 C   0  0  0  0  0  0  0  0  0  0  0  0
    1.1660    2.0988    0.0000 C   0  0  0  0  0  0  0  0  0  0  0  0
    2.3787    1.3992    0.0000 C   0  0  0  0  0  0  0  0  0  0  0  0
    3.5914    2.0988    0.0000 C   0  0  0  0  0  0  0  0  0  0  0  0
    3.5914    3.4981    0.0000 C   0  0  0  0  0  0  0  0  0  0  0  0
    2.3787    4.1977    0.0000 C   0  0  0  0  0  0  0  0  0  0  0  0
    4.8040    1.3992    0.0000 O   0  0  0  0  0  0  0  0  0  0  0  0
    6.0167    2.0988    0.0000 C   0  0  0  0  0  0  0  0  0  0  0  0
    6.0167    3.4981    0.0000 C   0  0  0  0  0  0  0  0  0  0  0  0
    4.8040    4.1977    0.0000 O   0  0  0  0  0  0  0  0  0  0  0  0
    7.2294    1.3992    0.0000 C   0  0  0  0  0  0  0  0  0  0  0  0
    8.4420    2.0988    0.0000 C   0  0  0  0  0  0  0  0  0  0  0  0
    8.4420    3.4981    0.0000 C   0  0  0  0  0  0  0  0  0  0  0  0
    7.2294    4.1977    0.0000 C   0  0  0  0  0  0  0  0  0  0  0  0
    7.2294    5.5503    0.0000 Cl  0  0  0  0  0  0  0  0  0  0  0  0
    9.6547    4.1977    0.0000 Cl  0  0  0  0  0  0  0  0  0  0  0  0
    7.2294    0.0000    0.0000 Cl  0  0  0  0  0  0  0  0  0  0  0  0
    0.0000    1.3992    0.0000 Cl  0  0  0  0  0  0  0  0  0  0  0  0
    0.0000    4.1977    0.0000 Cl  0  0  0  0  0  0  0  0  0  0  0  0
    9.6547    1.3992    0.0000 N   0  0  0  0  0  0  0  0  0  0  0  0
    9.6547    0.0000    0.0000 O   0  0  0  0  0  0  0  0  0  0  0  0
   10.8674    2.0988    0.0000 O   0  0  0  0  0  0  0  0  0  0  0  0
  1  2  2  0
  2  3  1  0
  3  4  2  0
  4  5  1  0
  5  6  2  0
  1  6  1  0
  4  7  1  0
  7  8  1  0
  8  9  2  0
  9 10  1  0
  5 10  1  0
  8 11  1  0
 11 12  2  0
 12 13  1  0
 13 14  2  0
  9 14  1  0
 14 15  1  0
 13 16  1  0
 11 17  1  0
  2 18  1  0
  1 19  1  0
 12 20  1  0
 20 21  1  0
 20 22  2  0
M  CHG  2  20   1  21  -1
M  END
>  <Compound Name>  (169) 
3-nitro-1,2,4,7,8-pentachlorodibenzo-1,4-dioxin

>  <Formula>  (169) 
C12H2Cl5NO4

>  <LogP>  (169) 
7.84

>  <LUMO>  (169) 
-1.616

>  <MOL_ID>  (169) 
175

>  <Activity>  (169) 
-0.33

$$$$
6-nitroindene
     RDKit          2D

 12 13  0  0  0  0  0  0  0  0999 V2000
    2.3787    3.4980    0.0000 C   0  0  0  0  0  0  0  0  0  0  0  0
    2.3787    2.0988    0.0000 C   0  0  0  0  0  0  0  0  0  0  0  0
    3.5913    1.3992    0.0000 C   0  0  0  0  0  0  0  0  0  0  0  0
    4.8040    2.0988    0.0000 C   0  0  0  0  0  0  0  0  0  0  0  0
    4.8040    3.4980    0.0000 C   0  0  0  0  0  0  0  0  0  0  0  0
    3.5913    4.1977    0.0000 C   0  0  0  0  0  0  0  0  0  0  0  0
    6.0166    1.3992    0.0000 C   0  0  0  0  0  0  0  0  0  0  0  0
    7.2293    2.0988    0.0000 C   0  0  0  0  0  0  0  0  0  0  0  0
    7.2293    3.4980    0.0000 C   0  0  0  0  0  0  0  0  0  0  0  0
    1.1660    1.3992    0.0000 N   0  0  0  0  0  0  0  0  0  0  0  0
   -0.0000    2.0988    0.0000 O   0  0  0  0  0  0  0  0  0  0  0  0
    1.1660    0.0000    0.0000 O   0  0  0  0  0  0  0  0  0  0  0  0
  1  2  2  0
  2  3  1  0
  3  4  2  0
  4  5  1  0
  5  6  2  0
  1  6  1  0
  4  7  1  0
  7  8  1  0
  8  9  2  0
  5  9  1  0
  2 10  1  0
 10 11  1  0
 10 12  2  0
M  CHG  2  10   1  11  -1
M  END
>  <Compound Name>  (170) 
6-nitroindene

>  <Formula>  (170) 
C9H7NO2

>  <LogP>  (170) 
2.74

>  <LUMO>  (170) 
-1.304

>  <MOL_ID>  (170) 
176

>  <Activity>  (170) 
0.96

$$$$
1,9-dinitrophenazine
     RDKit          2D

 20 22  0  0  0  0  0  0  0  0999 V2000
   -0.0000    2.1000    0.0000 C   0  0  0  0  0  0  0  0  0  0  0  0
   -0.0000    0.7000    0.0000 C   0  0  0  0  0  0  0  0  0  0  0  0
    1.1667    0.0000    0.0000 C   0  0  0  0  0  0  0  0  0  0  0  0
    2.3800    0.7000    0.0000 C   0  0  0  0  0  0  0  0  0  0  0  0
    2.3800    2.1000    0.0000 C   0  0  0  0  0  0  0  0  0  0  0  0
    1.1667    2.8000    0.0000 C   0  0  0  0  0  0  0  0  0  0  0  0
    3.5933    0.0000    0.0000 N   0  0  0  0  0  0  0  0  0  0  0  0
    4.8067    0.7000    0.0000 C   0  0  0  0  0  0  0  0  0  0  0  0
    4.8067    2.1000    0.0000 C   0  0  0  0  0  0  0  0  0  0  0  0
    3.5933    2.8000    0.0000 N   0  0  0  0  0  0  0  0  0  0  0  0
    6.0200    0.0000    0.0000 C   0  0  0  0  0  0  0  0  0  0  0  0
    7.2333    0.7000    0.0000 C   0  0  0  0  0  0  0  0  0  0  0  0
    7.2333    2.1000    0.0000 C   0  0  0  0  0  0  0  0  0  0  0  0
    6.0200    2.8000    0.0000 C   0  0  0  0  0  0  0  0  0  0  0  0
    6.0200    4.2000    0.0000 N   0  0  0  0  0  0  0  0  0  0  0  0
    7.2333    4.8533    0.0000 O   0  0  0  0  0  0  0  0  0  0  0  0
    4.8067    4.8533    0.0000 O   0  0  0  0  0  0  0  0  0  0  0  0
    1.1667    4.2000    0.0000 N   0  0  0  0  0  0  0  0  0  0  0  0
    2.3800    4.8533    0.0000 O   0  0  0  0  0  0  0  0  0  0  0  0
   -0.0000    4.8533    0.0000 O   0  0  0  0  0  0  0  0  0  0  0  0
  1  2  2  0
  2  3  1  0
  3  4  2  0
  4  5  1  0
  5  6  2  0
  1  6  1  0
  4  7  1  0
  7  8  2  0
  8  9  1  0
  9 10  2  0
  5 10  1  0
  8 11  1  0
 11 12  2  0
 12 13  1  0
 13 14  2  0
  9 14  1  0
 14 15  1  0
 15 16  1  0
 15 17  2  0
  6 18  1  0
 18 19  1  0
 18 20  2  0
M  CHG  4  15   1  16  -1  18   1  19  -1
M  END
>  <Compound Name>  (171) 
1,9-dinitrophenazine

>  <Formula>  (171) 
C12H6N4O4

>  <LogP>  (171) 
2.29

>  <LUMO>  (171) 
-2.614

>  <MOL_ID>  (171) 
177

>  <Activity>  (171) 
1.26

$$$$
2-methyl-7-nitroindazole
     RDKit          2D

 13 14  0  0  0  0  0  0  0  0999 V2000
    0.0933    2.1000    0.0000 C   0  0  0  0  0  0  0  0  0  0  0  0
    0.0933    0.7000    0.0000 C   0  0  0  0  0  0  0  0  0  0  0  0
    1.2133   -0.0000    0.0000 C   0  0  0  0  0  0  0  0  0  0  0  0
    2.4267    0.7000    0.0000 C   0  0  0  0  0  0  0  0  0  0  0  0
    2.4267    2.1000    0.0000 C   0  0  0  0  0  0  0  0  0  0  0  0
    1.2133    2.7533    0.0000 C   0  0  0  0  0  0  0  0  0  0  0  0
    3.7800    0.2800    0.0000 C   0  0  0  0  0  0  0  0  0  0  0  0
    4.5733    1.4000    0.0000 N   0  0  0  0  0  0  0  0  0  0  0  0
    3.7800    2.5200    0.0000 N   0  0  0  0  0  0  0  0  0  0  0  0
    5.9733    1.4000    0.0000 C   0  0  0  0  0  0  0  0  0  0  0  0
    1.2133    4.1533    0.0000 N   0  0  0  0  0  0  0  0  0  0  0  0
    2.4267    4.8533    0.0000 O   0  0  0  0  0  0  0  0  0  0  0  0
    0.0000    4.8533    0.0000 O   0  0  0  0  0  0  0  0  0  0  0  0
  1  2  1  0
  2  3  2  0
  3  4  1  0
  4  5  1  0
  5  6  1  0
  1  6  2  0
  4  7  2  0
  7  8  1  0
  8  9  1  0
  5  9  2  0
  8 10  1  0
  6 11  1  0
 11 12  1  0
 11 13  2  0
M  CHG  2  11   1  12  -1
M  END
>  <Compound Name>  (172) 
2-methyl-7-nitroindazole

>  <Formula>  (172) 
C8H8N3O2

>  <LogP>  (172) 
1.77

>  <LUMO>  (172) 
-1.213

>  <MOL_ID>  (172) 
178

>  <Activity>  (172) 
0.23

$$$$
4,4'-dinitrochalcone
     RDKit          2D

 22 23  0  0  0  0  0  0  0  0999 V2000
    2.0988    1.2127    0.0000 C   0  0  0  0  0  0  0  0  0  0  0  0
    2.7985    0.0000    0.0000 C   0  0  0  0  0  0  0  0  0  0  0  0
    4.1977    0.0000    0.0000 C   0  0  0  0  0  0  0  0  0  0  0  0
    4.8973    1.2127    0.0000 C   0  0  0  0  0  0  0  0  0  0  0  0
    4.1977    2.4253    0.0000 C   0  0  0  0  0  0  0  0  0  0  0  0
    2.7985    2.4253    0.0000 C   0  0  0  0  0  0  0  0  0  0  0  0
    6.2965    1.2127    0.0000 C   0  0  0  0  0  0  0  0  0  0  0  0
    6.9961    2.4253    0.0000 C   0  0  0  0  0  0  0  0  0  0  0  0
    8.3954    2.4253    0.0000 C   0  0  0  0  0  0  0  0  0  0  0  0
    8.3954    3.7779    0.0000 O   0  0  0  0  0  0  0  0  0  0  0  0
    9.7946    2.4253    0.0000 C   0  0  0  0  0  0  0  0  0  0  0  0
   10.4942    1.2127    0.0000 C   0  0  0  0  0  0  0  0  0  0  0  0
   11.8934    1.2127    0.0000 C   0  0  0  0  0  0  0  0  0  0  0  0
   12.5930    2.4253    0.0000 C   0  0  0  0  0  0  0  0  0  0  0  0
   11.8934    3.6380    0.0000 C   0  0  0  0  0  0  0  0  0  0  0  0
   10.4942    3.6380    0.0000 C   0  0  0  0  0  0  0  0  0  0  0  0
   13.9923    2.4253    0.0000 N   0  0  0  0  0  0  0  0  0  0  0  0
   14.6919    1.2127    0.0000 O   0  0  0  0  0  0  0  0  0  0  0  0
   14.6919    3.6380    0.0000 O   0  0  0  0  0  0  0  0  0  0  0  0
    0.6996    1.2127    0.0000 N   0  0  0  0  0  0  0  0  0  0  0  0
    0.0000    2.4253    0.0000 O   0  0  0  0  0  0  0  0  0  0  0  0
    0.0000    0.0000    0.0000 O   0  0  0  0  0  0  0  0  0  0  0  0
  1  2  2  0
  2  3  1  0
  3  4  2  0
  4  5  1  0
  5  6  2  0
  1  6  1  0
  4  7  1  0
  7  8  2  0
  8  9  1  0
  9 10  2  0
  9 11  1  0
 11 12  2  0
 12 13  1  0
 13 14  2  0
 14 15  1  0
 15 16  2  0
 11 16  1  0
 14 17  1  0
 17 18  1  0
 17 19  2  0
  1 20  1  0
 20 21  1  0
 20 22  2  0
M  CHG  4  17   1  18  -1  20   1  21  -1
M  END
>  <Compound Name>  (173) 
4,4'-dinitrochalcone

>  <Formula>  (173) 
C15H10N2O5

>  <LogP>  (173) 
2.73

>  <LUMO>  (173) 
-1.889

>  <MOL_ID>  (173) 
179

>  <Activity>  (173) 
-1.42

$$$$
5,8-dinitrobenzo[ghi]perylene
     RDKit          2D

 28 33  0  0  0  0  0  0  0  0999 V2000
    0.6533    7.2800    0.0000 C   0  0  0  0  0  0  0  0  0  0  0  0
    0.0000    6.0666    0.0000 C   0  0  0  0  0  0  0  0  0  0  0  0
    0.6533    4.8533    0.0000 C   0  0  0  0  0  0  0  0  0  0  0  0
    2.0533    4.8533    0.0000 C   0  0  0  0  0  0  0  0  0  0  0  0
    2.7533    6.0666    0.0000 C   0  0  0  0  0  0  0  0  0  0  0  0
    2.0533    7.2800    0.0000 C   0  0  0  0  0  0  0  0  0  0  0  0
    4.1533    6.0666    0.0000 C   0  0  0  0  0  0  0  0  0  0  0  0
    4.8533    7.2800    0.0000 C   0  0  0  0  0  0  0  0  0  0  0  0
    4.1533    8.4466    0.0000 C   0  0  0  0  0  0  0  0  0  0  0  0
    2.7533    8.4466    0.0000 C   0  0  0  0  0  0  0  0  0  0  0  0
    4.8533    4.8533    0.0000 C   0  0  0  0  0  0  0  0  0  0  0  0
    6.2533    4.8533    0.0000 C   0  0  0  0  0  0  0  0  0  0  0  0
    7.0000    6.0666    0.0000 C   0  0  0  0  0  0  0  0  0  0  0  0
    6.2533    7.2800    0.0000 C   0  0  0  0  0  0  0  0  0  0  0  0
    2.7533    3.6400    0.0000 C   0  0  0  0  0  0  0  0  0  0  0  0
    4.1533    3.6400    0.0000 C   0  0  0  0  0  0  0  0  0  0  0  0
    0.0000    3.6400    0.0000 C   0  0  0  0  0  0  0  0  0  0  0  0
    0.6533    2.4266    0.0000 C   0  0  0  0  0  0  0  0  0  0  0  0
    2.0533    2.4266    0.0000 C   0  0  0  0  0  0  0  0  0  0  0  0
    4.8533    2.4266    0.0000 C   0  0  0  0  0  0  0  0  0  0  0  0
    6.2533    2.4266    0.0000 C   0  0  0  0  0  0  0  0  0  0  0  0
    7.0000    3.6400    0.0000 C   0  0  0  0  0  0  0  0  0  0  0  0
    8.3533    3.6400    0.0000 N   0  0  0  0  0  0  0  0  0  0  0  0
    9.0533    2.4266    0.0000 O   0  0  0  0  0  0  0  0  0  0  0  0
    9.0533    4.8533    0.0000 O   0  0  0  0  0  0  0  0  0  0  0  0
    2.7533    1.2133    0.0000 N   0  0  0  0  0  0  0  0  0  0  0  0
    2.0533    0.0000    0.0000 O   0  0  0  0  0  0  0  0  0  0  0  0
    4.1533    1.2133    0.0000 O   0  0  0  0  0  0  0  0  0  0  0  0
  1  2  2  0
  2  3  1  0
  3  4  2  0
  4  5  1  0
  5  6  2  0
  1  6  1  0
  5  7  1  0
  7  8  2  0
  8  9  1  0
  9 10  2  0
  6 10  1  0
  7 11  1  0
 11 12  2  0
 12 13  1  0
 13 14  2  0
  8 14  1  0
  4 15  1  0
 15 16  1  0
 11 16  1  0
  3 17  1  0
 17 18  2  0
 18 19  1  0
 15 19  2  0
 16 20  2  0
 20 21  1  0
 21 22  2  0
 12 22  1  0
 22 23  1  0
 23 24  1  0
 23 25  2  0
 19 26  1  0
 26 27  1  0
 26 28  2  0
M  CHG  4  23   1  24  -1  26   1  27  -1
M  END
>  <Compound Name>  (174) 
5,8-dinitrobenzo[ghi]perylene

>  <Formula>  (174) 
C22H10N2O4

>  <LogP>  (174) 
6.07

>  <LUMO>  (174) 
-2.182

>  <MOL_ID>  (174) 
180

>  <Activity>  (174) 
4.33

$$$$
2-nitro-p-phenylenediamine
     RDKit          2D

 11 11  0  0  0  0  0  0  0  0999 V2000
    1.3533    1.2133    0.0000 C   0  0  0  0  0  0  0  0  0  0  0  0
    2.0533    0.0000    0.0000 C   0  0  0  0  0  0  0  0  0  0  0  0
    3.4533    0.0000    0.0000 C   0  0  0  0  0  0  0  0  0  0  0  0
    4.1534    1.2133    0.0000 C   0  0  0  0  0  0  0  0  0  0  0  0
    3.4533    2.4267    0.0000 C   0  0  0  0  0  0  0  0  0  0  0  0
    2.0533    2.4267    0.0000 C   0  0  0  0  0  0  0  0  0  0  0  0
    5.5534    1.2133    0.0000 N   0  0  0  0  0  0  0  0  0  0  0  0
    0.0000    1.2133    0.0000 N   0  0  0  0  0  0  0  0  0  0  0  0
    4.1534    3.6400    0.0000 N   0  0  0  0  0  0  0  0  0  0  0  0
    5.5534    3.6400    0.0000 O   0  0  0  0  0  0  0  0  0  0  0  0
    3.4533    4.8067    0.0000 O   0  0  0  0  0  0  0  0  0  0  0  0
  1  2  2  0
  2  3  1  0
  3  4  2  0
  4  5  1  0
  5  6  2  0
  1  6  1  0
  4  7  1  0
  1  8  1  0
  5  9  1  0
  9 10  1  0
  9 11  2  0
M  CHG  2   9   1  10  -1
M  END
>  <Compound Name>  (175) 
2-nitro-p-phenylenediamine

>  <Formula>  (175) 
C6H7N3O2

>  <LogP>  (175) 
0.53

>  <LUMO>  (175) 
-0.727

>  <MOL_ID>  (175) 
181

>  <Activity>  (175) 
-1.11

$$$$
8-nitroquinaldine
     RDKit          2D

 14 15  0  0  0  0  0  0  0  0999 V2000
    2.4253    4.1977    0.0000 C   0  0  0  0  0  0  0  0  0  0  0  0
    2.4253    2.7984    0.0000 C   0  0  0  0  0  0  0  0  0  0  0  0
    3.6380    2.0988    0.0000 N   0  0  0  0  0  0  0  0  0  0  0  0
    4.8506    2.7984    0.0000 C   0  0  0  0  0  0  0  0  0  0  0  0
    4.8506    4.1977    0.0000 C   0  0  0  0  0  0  0  0  0  0  0  0
    3.6380    4.8973    0.0000 C   0  0  0  0  0  0  0  0  0  0  0  0
    1.2127    4.8973    0.0000 C   0  0  0  0  0  0  0  0  0  0  0  0
    0.0000    4.1977    0.0000 C   0  0  0  0  0  0  0  0  0  0  0  0
    0.0000    2.7984    0.0000 C   0  0  0  0  0  0  0  0  0  0  0  0
    1.2127    2.0988    0.0000 C   0  0  0  0  0  0  0  0  0  0  0  0
    6.0633    2.0988    0.0000 C   0  0  0  0  0  0  0  0  0  0  0  0
    1.2127    0.6996    0.0000 N   0  0  0  0  0  0  0  0  0  0  0  0
    0.0000   -0.0000    0.0000 O   0  0  0  0  0  0  0  0  0  0  0  0
    2.4253   -0.0000    0.0000 O   0  0  0  0  0  0  0  0  0  0  0  0
  1  2  1  0
  2  3  2  0
  3  4  1  0
  4  5  2  0
  5  6  1  0
  1  6  2  0
  1  7  1  0
  7  8  2  0
  8  9  1  0
  9 10  2  0
  2 10  1  0
  4 11  1  0
 10 12  1  0
 12 13  1  0
 12 14  2  0
M  CHG  2  12   1  13  -1
M  END
>  <Compound Name>  (176) 
8-nitroquinaldine

>  <Formula>  (176) 
C10H8N2O2

>  <LogP>  (176) 
1.99

>  <LUMO>  (176) 
-1.366

>  <MOL_ID>  (176) 
182

>  <Activity>  (176) 
-2.7

$$$$
1,8-dinitropyrene
     RDKit          2D

 22 25  0  0  0  0  0  0  0  0999 V2000
    2.3787    2.0988    0.0000 C   0  0  0  0  0  0  0  0  0  0  0  0
    2.3787    0.6996    0.0000 C   0  0  0  0  0  0  0  0  0  0  0  0
    3.5913    0.0000    0.0000 C   0  0  0  0  0  0  0  0  0  0  0  0
    4.8040    0.6996    0.0000 C   0  0  0  0  0  0  0  0  0  0  0  0
    4.8040    2.0988    0.0000 C   0  0  0  0  0  0  0  0  0  0  0  0
    3.5913    2.7984    0.0000 C   0  0  0  0  0  0  0  0  0  0  0  0
    6.0167    2.7984    0.0000 C   0  0  0  0  0  0  0  0  0  0  0  0
    6.0167    4.1977    0.0000 C   0  0  0  0  0  0  0  0  0  0  0  0
    4.8040    4.8973    0.0000 C   0  0  0  0  0  0  0  0  0  0  0  0
    3.5913    4.1977    0.0000 C   0  0  0  0  0  0  0  0  0  0  0  0
    7.2293    2.0988    0.0000 C   0  0  0  0  0  0  0  0  0  0  0  0
    8.4420    2.7984    0.0000 C   0  0  0  0  0  0  0  0  0  0  0  0
    8.4420    4.1977    0.0000 C   0  0  0  0  0  0  0  0  0  0  0  0
    7.2293    4.8973    0.0000 C   0  0  0  0  0  0  0  0  0  0  0  0
    6.0167    0.0000    0.0000 C   0  0  0  0  0  0  0  0  0  0  0  0
    7.2293    0.6996    0.0000 C   0  0  0  0  0  0  0  0  0  0  0  0
    7.2293    6.2965    0.0000 N   0  0  0  0  0  0  0  0  0  0  0  0
    8.4420    6.9495    0.0000 O   0  0  0  0  0  0  0  0  0  0  0  0
    6.0167    6.9495    0.0000 O   0  0  0  0  0  0  0  0  0  0  0  0
    1.1660    2.7984    0.0000 N   0  0  0  0  0  0  0  0  0  0  0  0
    1.1660    4.1977    0.0000 O   0  0  0  0  0  0  0  0  0  0  0  0
   -0.0000    2.0988    0.0000 O   0  0  0  0  0  0  0  0  0  0  0  0
  1  2  2  0
  2  3  1  0
  3  4  2  0
  4  5  1  0
  5  6  2  0
  1  6  1  0
  5  7  1  0
  7  8  2  0
  8  9  1  0
  9 10  2  0
  6 10  1  0
  7 11  1  0
 11 12  2  0
 12 13  1  0
 13 14  2  0
  8 14  1  0
  4 15  1  0
 15 16  2  0
 11 16  1  0
 14 17  1  0
 17 18  1  0
 17 19  2  0
  1 20  1  0
 20 21  1  0
 20 22  2  0
M  CHG  4  17   1  18  -1  20   1  21  -1
M  END
>  <Compound Name>  (177) 
1,8-dinitropyrene

>  <Formula>  (177) 
C16H8N2O4

>  <LogP>  (177) 
4.44

>  <LUMO>  (177) 
-2.294

>  <MOL_ID>  (177) 
183

>  <Activity>  (177) 
5.39

$$$$
3,7-dinitrofluoranthene
     RDKit          2D

 22 25  0  0  0  0  0  0  0  0999 V2000
    3.5447    4.1977    0.0000 C   0  0  0  0  0  0  0  0  0  0  0  0
    3.5447    2.7984    0.0000 C   0  0  0  0  0  0  0  0  0  0  0  0
    4.7574    2.0988    0.0000 C   0  0  0  0  0  0  0  0  0  0  0  0
    5.9700    2.7984    0.0000 C   0  0  0  0  0  0  0  0  0  0  0  0
    5.9700    4.1977    0.0000 C   0  0  0  0  0  0  0  0  0  0  0  0
    4.7574    4.8973    0.0000 C   0  0  0  0  0  0  0  0  0  0  0  0
    2.3320    4.8973    0.0000 C   0  0  0  0  0  0  0  0  0  0  0  0
    1.1194    4.1977    0.0000 C   0  0  0  0  0  0  0  0  0  0  0  0
    1.1194    2.7984    0.0000 C   0  0  0  0  0  0  0  0  0  0  0  0
    2.3320    2.0988    0.0000 C   0  0  0  0  0  0  0  0  0  0  0  0
    4.2909    6.2965    0.0000 C   0  0  0  0  0  0  0  0  0  0  0  0
    2.7984    6.2965    0.0000 C   0  0  0  0  0  0  0  0  0  0  0  0
    5.0372    7.6024    0.0000 C   0  0  0  0  0  0  0  0  0  0  0  0
    4.2909    8.8617    0.0000 C   0  0  0  0  0  0  0  0  0  0  0  0
    2.7984    8.8617    0.0000 C   0  0  0  0  0  0  0  0  0  0  0  0
    2.0522    7.6024    0.0000 C   0  0  0  0  0  0  0  0  0  0  0  0
    4.7574    0.6996    0.0000 N   0  0  0  0  0  0  0  0  0  0  0  0
    3.5447    0.0000    0.0000 O   0  0  0  0  0  0  0  0  0  0  0  0
    5.9700    0.0000    0.0000 O   0  0  0  0  0  0  0  0  0  0  0  0
    0.6530    7.6024    0.0000 N   0  0  0  0  0  0  0  0  0  0  0  0
   -0.0000    8.8151    0.0000 O   0  0  0  0  0  0  0  0  0  0  0  0
   -0.0000    6.3898    0.0000 O   0  0  0  0  0  0  0  0  0  0  0  0
  1  2  1  0
  2  3  2  0
  3  4  1  0
  4  5  2  0
  5  6  1  0
  1  6  2  0
  1  7  1  0
  7  8  2  0
  8  9  1  0
  9 10  2  0
  2 10  1  0
  6 11  1  0
  7 12  1  0
 11 12  2  0
 11 13  1  0
 13 14  2  0
 14 15  1  0
 15 16  2  0
 12 16  1  0
  3 17  1  0
 17 18  1  0
 17 19  2  0
 16 20  1  0
 20 21  1  0
 20 22  2  0
M  CHG  4  17   1  18  -1  20   1  21  -1
M  END
>  <Compound Name>  (178) 
3,7-dinitrofluoranthene

>  <Formula>  (178) 
C16H8N2O4

>  <LogP>  (178) 
4.44

>  <LUMO>  (178) 
-2.074

>  <MOL_ID>  (178) 
184

>  <Activity>  (178) 
5.09

$$$$
3,4-dinitro-1-fluorobenzene
     RDKit          2D

 13 13  0  0  0  0  0  0  0  0999 V2000
    1.3526    1.2127    0.0000 C   0  0  0  0  0  0  0  0  0  0  0  0
    2.0522    0.0000    0.0000 C   0  0  0  0  0  0  0  0  0  0  0  0
    3.4514    0.0000    0.0000 C   0  0  0  0  0  0  0  0  0  0  0  0
    4.1510    1.2127    0.0000 C   0  0  0  0  0  0  0  0  0  0  0  0
    3.4514    2.4253    0.0000 C   0  0  0  0  0  0  0  0  0  0  0  0
    2.0522    2.4253    0.0000 C   0  0  0  0  0  0  0  0  0  0  0  0
   -0.0000    1.2127    0.0000 F   0  0  0  0  0  0  0  0  0  0  0  0
    4.1510    3.6380    0.0000 N   0  0  0  0  0  0  0  0  0  0  0  0
    5.5502    3.6380    0.0000 O   0  0  0  0  0  0  0  0  0  0  0  0
    3.4514    4.8040    0.0000 O   0  0  0  0  0  0  0  0  0  0  0  0
    5.5502    1.2127    0.0000 N   0  0  0  0  0  0  0  0  0  0  0  0
    6.2498    0.0000    0.0000 O   0  0  0  0  0  0  0  0  0  0  0  0
    6.2498    2.4253    0.0000 O   0  0  0  0  0  0  0  0  0  0  0  0
  1  2  2  0
  2  3  1  0
  3  4  2  0
  4  5  1  0
  5  6  2  0
  1  6  1  0
  1  7  1  0
  5  8  1  0
  8  9  1  0
  8 10  2  0
  4 11  1  0
 11 12  1  0
 11 13  2  0
M  CHG  4   8   1   9  -1  11   1  12  -1
M  END
>  <Compound Name>  (179) 
3,4-dinitro-1-fluorobenzene

>  <Formula>  (179) 
C6H3FN2O4

>  <LogP>  (179) 
1.89

>  <LUMO>  (179) 
-2.09

>  <MOL_ID>  (179) 
185

>  <Activity>  (179) 
-1.84

$$$$
5-nitroindoline
     RDKit          2D

 12 13  0  0  0  0  0  0  0  0999 V2000
    2.3787    2.0988    0.0000 C   0  0  0  0  0  0  0  0  0  0  0  0
    2.3787    0.6996    0.0000 C   0  0  0  0  0  0  0  0  0  0  0  0
    3.5913    0.0000    0.0000 C   0  0  0  0  0  0  0  0  0  0  0  0
    4.8040    0.6996    0.0000 C   0  0  0  0  0  0  0  0  0  0  0  0
    4.8040    2.0988    0.0000 C   0  0  0  0  0  0  0  0  0  0  0  0
    3.5913    2.7984    0.0000 C   0  0  0  0  0  0  0  0  0  0  0  0
    6.1566    0.2798    0.0000 N   0  0  0  0  0  2  0  0  0  0  0  0
    6.9495    1.3992    0.0000 C   0  0  0  0  0  0  0  0  0  0  0  0
    6.1566    2.5186    0.0000 C   0  0  0  0  0  0  0  0  0  0  0  0
    1.1660    2.7984    0.0000 N   0  0  0  0  0  0  0  0  0  0  0  0
    1.1660    4.1977    0.0000 O   0  0  0  0  0  0  0  0  0  0  0  0
   -0.0000    2.0988    0.0000 O   0  0  0  0  0  0  0  0  0  0  0  0
  1  2  2  0
  2  3  1  0
  3  4  2  0
  4  5  1  0
  5  6  2  0
  1  6  1  0
  4  7  1  0
  7  8  1  0
  8  9  1  0
  5  9  1  0
  1 10  1  0
 10 11  1  0
 10 12  2  0
M  CHG  2  10   1  11  -1
M  RAD  1   7   2
M  END
>  <Compound Name>  (180) 
5-nitroindoline

>  <Formula>  (180) 
C8H8N2O2

>  <LogP>  (180) 
2.07

>  <LUMO>  (180) 
-0.574

>  <MOL_ID>  (180) 
186

>  <Activity>  (180) 
-0.17

$$$$
2-nitrotriphenylene
     RDKit          2D

 21 24  0  0  0  0  0  0  0  0999 V2000
    2.3787    4.1977    0.0000 C   0  0  0  0  0  0  0  0  0  0  0  0
    2.3787    2.7984    0.0000 C   0  0  0  0  0  0  0  0  0  0  0  0
    3.5913    2.0988    0.0000 C   0  0  0  0  0  0  0  0  0  0  0  0
    4.8040    2.7984    0.0000 C   0  0  0  0  0  0  0  0  0  0  0  0
    4.8040    4.1977    0.0000 C   0  0  0  0  0  0  0  0  0  0  0  0
    3.5913    4.8973    0.0000 C   0  0  0  0  0  0  0  0  0  0  0  0
    1.1660    4.8973    0.0000 C   0  0  0  0  0  0  0  0  0  0  0  0
   -0.0000    4.1977    0.0000 C   0  0  0  0  0  0  0  0  0  0  0  0
   -0.0000    2.7984    0.0000 C   0  0  0  0  0  0  0  0  0  0  0  0
    1.1660    2.0988    0.0000 C   0  0  0  0  0  0  0  0  0  0  0  0
    6.0167    4.8973    0.0000 C   0  0  0  0  0  0  0  0  0  0  0  0
    6.0167    6.2965    0.0000 C   0  0  0  0  0  0  0  0  0  0  0  0
    4.8040    6.9961    0.0000 C   0  0  0  0  0  0  0  0  0  0  0  0
    3.5913    6.2965    0.0000 C   0  0  0  0  0  0  0  0  0  0  0  0
    3.5913    0.6996    0.0000 C   0  0  0  0  0  0  0  0  0  0  0  0
    4.8040    0.0000    0.0000 C   0  0  0  0  0  0  0  0  0  0  0  0
    6.0167    0.6996    0.0000 C   0  0  0  0  0  0  0  0  0  0  0  0
    6.0167    2.0988    0.0000 C   0  0  0  0  0  0  0  0  0  0  0  0
    4.8040    8.3953    0.0000 N   0  0  0  0  0  0  0  0  0  0  0  0
    6.0167    9.0950    0.0000 O   0  0  0  0  0  0  0  0  0  0  0  0
    3.5913    9.0950    0.0000 O   0  0  0  0  0  0  0  0  0  0  0  0
  1  2  1  0
  2  3  1  0
  3  4  2  0
  4  5  1  0
  5  6  2  0
  1  6  1  0
  1  7  2  0
  7  8  1  0
  8  9  2  0
  9 10  1  0
  2 10  2  0
  5 11  1  0
 11 12  2  0
 12 13  1  0
 13 14  2  0
  6 14  1  0
  3 15  1  0
 15 16  2  0
 16 17  1  0
 17 18  2  0
  4 18  1  0
 13 19  1  0
 19 20  1  0
 19 21  2  0
M  CHG  2  19   1  20  -1
M  END
>  <Compound Name>  (181) 
2-nitrotriphenylene

>  <Formula>  (181) 
C18H11NO2

>  <LogP>  (181) 
5.41

>  <LUMO>  (181) 
-1.276

>  <MOL_ID>  (181) 
187

>  <Activity>  (181) 
4.09

$$$$
1,3,6,8-tetranitronaphthalene
     RDKit          2D

 22 23  0  0  0  0  0  0  0  0999 V2000
    4.8066    3.5000    0.0000 C   0  0  0  0  0  0  0  0  0  0  0  0
    4.8066    2.1000    0.0000 C   0  0  0  0  0  0  0  0  0  0  0  0
    6.0200    1.4000    0.0000 C   0  0  0  0  0  0  0  0  0  0  0  0
    7.2333    2.1000    0.0000 C   0  0  0  0  0  0  0  0  0  0  0  0
    7.2333    3.5000    0.0000 C   0  0  0  0  0  0  0  0  0  0  0  0
    6.0200    4.2000    0.0000 C   0  0  0  0  0  0  0  0  0  0  0  0
    3.5933    4.2000    0.0000 C   0  0  0  0  0  0  0  0  0  0  0  0
    2.3800    3.5000    0.0000 C   0  0  0  0  0  0  0  0  0  0  0  0
    2.3800    2.1000    0.0000 C   0  0  0  0  0  0  0  0  0  0  0  0
    3.5933    1.4000    0.0000 C   0  0  0  0  0  0  0  0  0  0  0  0
    6.0200    5.6000    0.0000 N   0  0  0  0  0  0  0  0  0  0  0  0
    6.7200    6.3000    0.0000 O   0  0  0  0  0  0  0  0  0  0  0  0
    5.2266    6.3000    0.0000 O   0  0  0  0  0  0  0  0  0  0  0  0
    8.4466    1.4000    0.0000 N   0  0  0  0  0  0  0  0  0  0  0  0
    8.4466   -0.0000    0.0000 O   0  0  0  0  0  0  0  0  0  0  0  0
    9.6600    2.1000    0.0000 O   0  0  0  0  0  0  0  0  0  0  0  0
    1.1667    1.4000    0.0000 N   0  0  0  0  0  0  0  0  0  0  0  0
   -0.0000    2.1000    0.0000 O   0  0  0  0  0  0  0  0  0  0  0  0
    1.1667   -0.0000    0.0000 O   0  0  0  0  0  0  0  0  0  0  0  0
    3.5933    5.6000    0.0000 N   0  0  0  0  0  0  0  0  0  0  0  0
    4.2467    6.3000    0.0000 O   0  0  0  0  0  0  0  0  0  0  0  0
    2.7067    6.3000    0.0000 O   0  0  0  0  0  0  0  0  0  0  0  0
  1  2  1  0
  2  3  2  0
  3  4  1  0
  4  5  2  0
  5  6  1  0
  1  6  2  0
  1  7  1  0
  7  8  2  0
  8  9  1  0
  9 10  2  0
  2 10  1  0
  6 11  1  0
 11 12  1  0
 11 13  2  0
  4 14  1  0
 14 15  1  0
 14 16  2  0
  9 17  1  0
 17 18  1  0
 17 19  2  0
  7 20  1  0
 20 21  1  0
 20 22  2  0
M  CHG  8  11   1  12  -1  14   1  15  -1  17   1  18  -1  20   1  21  -1
M  END
>  <Compound Name>  (182) 
1,3,6,8-tetranitronaphthalene

>  <Formula>  (182) 
C10H4N4O8

>  <LogP>  (182) 
2.29

>  <LUMO>  (182) 
-3.025

>  <MOL_ID>  (182) 
189

>  <Activity>  (182) 
-0.7

$$$$
4-nitrocyclopenta[cd]pyrene
     RDKit          2D

 21 25  0  0  0  0  0  0  0  0999 V2000
   -0.0000    4.0578    0.0000 C   0  0  0  0  0  0  0  0  0  0  0  0
   -0.0000    2.6585    0.0000 C   0  0  0  0  0  0  0  0  0  0  0  0
    1.1660    1.9589    0.0000 C   0  0  0  0  0  0  0  0  0  0  0  0
    2.3787    2.6585    0.0000 C   0  0  0  0  0  0  0  0  0  0  0  0
    2.3787    4.0578    0.0000 C   0  0  0  0  0  0  0  0  0  0  0  0
    1.1660    4.7574    0.0000 C   0  0  0  0  0  0  0  0  0  0  0  0
    3.5914    4.7574    0.0000 C   0  0  0  0  0  0  0  0  0  0  0  0
    3.5914    6.1566    0.0000 C   0  0  0  0  0  0  0  0  0  0  0  0
    2.3787    6.8562    0.0000 C   0  0  0  0  0  0  0  0  0  0  0  0
    1.1660    6.1566    0.0000 C   0  0  0  0  0  0  0  0  0  0  0  0
    4.8040    4.0578    0.0000 C   0  0  0  0  0  0  0  0  0  0  0  0
    6.0167    4.7574    0.0000 C   0  0  0  0  0  0  0  0  0  0  0  0
    6.0167    6.1566    0.0000 C   0  0  0  0  0  0  0  0  0  0  0  0
    4.8040    6.8562    0.0000 C   0  0  0  0  0  0  0  0  0  0  0  0
    3.5914    1.9589    0.0000 C   0  0  0  0  0  0  0  0  0  0  0  0
    4.8040    2.6585    0.0000 C   0  0  0  0  0  0  0  0  0  0  0  0
    6.1100    2.3321    0.0000 C   0  0  0  0  0  0  0  0  0  0  0  0
    6.9495    3.9645    0.0000 C   0  0  0  0  0  0  0  0  0  0  0  0
    6.4831    0.9795    0.0000 N   0  0  0  0  0  0  0  0  0  0  0  0
    5.5037    0.0000    0.0000 O   0  0  0  0  0  0  0  0  0  0  0  0
    7.8357    0.6063    0.0000 O   0  0  0  0  0  0  0  0  0  0  0  0
  1  2  2  0
  2  3  1  0
  3  4  2  0
  4  5  1  0
  5  6  2  0
  1  6  1  0
  5  7  1  0
  7  8  2  0
  8  9  1  0
  9 10  2  0
  6 10  1  0
  7 11  1  0
 11 12  2  0
 12 13  1  0
 13 14  2  0
  8 14  1  0
  4 15  1  0
 15 16  2  0
 11 16  1  0
 16 17  1  0
 12 18  1  0
 17 18  2  0
 17 19  1  0
 19 20  1  0
 19 21  2  0
M  CHG  2  19   1  20  -1
M  END
>  <Compound Name>  (183) 
4-nitrocyclopenta[cd]pyrene

>  <Formula>  (183) 
C18H9NO2

>  <LogP>  (183) 
4.35

>  <LUMO>  (183) 
-2.138

>  <MOL_ID>  (183) 
191

>  <Activity>  (183) 
0.77

$$$$
5-nitrochrysene
     RDKit          2D

 21 24  0  0  0  0  0  0  0  0999 V2000
    2.3787    3.4981    0.0000 C   0  0  0  0  0  0  0  0  0  0  0  0
    2.3787    2.0988    0.0000 C   0  0  0  0  0  0  0  0  0  0  0  0
    3.5913    1.3992    0.0000 C   0  0  0  0  0  0  0  0  0  0  0  0
    4.8040    2.0988    0.0000 C   0  0  0  0  0  0  0  0  0  0  0  0
    4.8040    3.4981    0.0000 C   0  0  0  0  0  0  0  0  0  0  0  0
    3.5913    4.1977    0.0000 C   0  0  0  0  0  0  0  0  0  0  0  0
    1.1660    4.1977    0.0000 C   0  0  0  0  0  0  0  0  0  0  0  0
   -0.0000    3.4981    0.0000 C   0  0  0  0  0  0  0  0  0  0  0  0
   -0.0000    2.0988    0.0000 C   0  0  0  0  0  0  0  0  0  0  0  0
    1.1660    1.3992    0.0000 C   0  0  0  0  0  0  0  0  0  0  0  0
    6.0167    4.1977    0.0000 C   0  0  0  0  0  0  0  0  0  0  0  0
    6.0167    5.5969    0.0000 C   0  0  0  0  0  0  0  0  0  0  0  0
    4.8040    6.2965    0.0000 C   0  0  0  0  0  0  0  0  0  0  0  0
    3.5913    5.5969    0.0000 C   0  0  0  0  0  0  0  0  0  0  0  0
    7.2293    3.4981    0.0000 C   0  0  0  0  0  0  0  0  0  0  0  0
    8.4420    4.1977    0.0000 C   0  0  0  0  0  0  0  0  0  0  0  0
    8.4420    5.5969    0.0000 C   0  0  0  0  0  0  0  0  0  0  0  0
    7.2293    6.2965    0.0000 C   0  0  0  0  0  0  0  0  0  0  0  0
    6.0167    1.3992    0.0000 N   0  0  0  0  0  0  0  0  0  0  0  0
    6.0167   -0.0000    0.0000 O   0  0  0  0  0  0  0  0  0  0  0  0
    7.2293    2.0988    0.0000 O   0  0  0  0  0  0  0  0  0  0  0  0
  1  2  1  0
  2  3  2  0
  3  4  1  0
  4  5  2  0
  5  6  1  0
  1  6  2  0
  1  7  1  0
  7  8  2  0
  8  9  1  0
  9 10  2  0
  2 10  1  0
  5 11  1  0
 11 12  2  0
 12 13  1  0
 13 14  2  0
  6 14  1  0
 11 15  1  0
 15 16  2  0
 16 17  1  0
 17 18  2  0
 12 18  1  0
  4 19  1  0
 19 20  1  0
 19 21  2  0
M  CHG  2  19   1  20  -1
M  END
>  <Compound Name>  (184) 
5-nitrochrysene

>  <Formula>  (184) 
C18H11NO2

>  <LogP>  (184) 
5.41

>  <LUMO>  (184) 
-1.429

>  <MOL_ID>  (184) 
192

>  <Activity>  (184) 
-0.22

$$$$
2-nitrochrysene
     RDKit          2D

 21 24  0  0  0  0  0  0  0  0999 V2000
    2.3800    2.1000    0.0000 C   0  0  0  0  0  0  0  0  0  0  0  0
    2.3800    0.7000    0.0000 C   0  0  0  0  0  0  0  0  0  0  0  0
    3.5467   -0.0000    0.0000 C   0  0  0  0  0  0  0  0  0  0  0  0
    4.8067    0.7000    0.0000 C   0  0  0  0  0  0  0  0  0  0  0  0
    4.8067    2.1000    0.0000 C   0  0  0  0  0  0  0  0  0  0  0  0
    3.5467    2.8000    0.0000 C   0  0  0  0  0  0  0  0  0  0  0  0
    1.1667    2.8000    0.0000 C   0  0  0  0  0  0  0  0  0  0  0  0
   -0.0000    2.1000    0.0000 C   0  0  0  0  0  0  0  0  0  0  0  0
   -0.0000    0.7000    0.0000 C   0  0  0  0  0  0  0  0  0  0  0  0
    1.1667   -0.0000    0.0000 C   0  0  0  0  0  0  0  0  0  0  0  0
    6.0200    2.8000    0.0000 C   0  0  0  0  0  0  0  0  0  0  0  0
    6.0200    4.2000    0.0000 C   0  0  0  0  0  0  0  0  0  0  0  0
    4.8067    4.8533    0.0000 C   0  0  0  0  0  0  0  0  0  0  0  0
    3.5467    4.2000    0.0000 C   0  0  0  0  0  0  0  0  0  0  0  0
    7.1867    2.1000    0.0000 C   0  0  0  0  0  0  0  0  0  0  0  0
    8.4467    2.8000    0.0000 C   0  0  0  0  0  0  0  0  0  0  0  0
    8.4467    4.2000    0.0000 C   0  0  0  0  0  0  0  0  0  0  0  0
    7.1867    4.8533    0.0000 C   0  0  0  0  0  0  0  0  0  0  0  0
    9.6600    4.9467    0.0000 N   0  0  0  0  0  0  0  0  0  0  0  0
   10.8267    4.2000    0.0000 O   0  0  0  0  0  0  0  0  0  0  0  0
    9.6600    6.3467    0.0000 O   0  0  0  0  0  0  0  0  0  0  0  0
  1  2  1  0
  2  3  2  0
  3  4  1  0
  4  5  2  0
  5  6  1  0
  1  6  2  0
  1  7  1  0
  7  8  2  0
  8  9  1  0
  9 10  2  0
  2 10  1  0
  5 11  1  0
 11 12  2  0
 12 13  1  0
 13 14  2  0
  6 14  1  0
 11 15  1  0
 15 16  2  0
 16 17  1  0
 17 18  2  0
 12 18  1  0
 17 19  1  0
 19 20  1  0
 19 21  2  0
M  CHG  2  19   1  20  -1
M  END
>  <Compound Name>  (185) 
2-nitrochrysene

>  <Formula>  (185) 
C18H11NO2

>  <LogP>  (185) 
5.41

>  <LUMO>  (185) 
-1.478

>  <MOL_ID>  (185) 
193

>  <Activity>  (185) 
-0.22

$$$$
4-nitro-o-phenylenediamine
     RDKit          2D

 11 11  0  0  0  0  0  0  0  0999 V2000
    4.1533    2.4267    0.0000 C   0  0  0  0  0  0  0  0  0  0  0  0
    2.7533    2.4267    0.0000 C   0  0  0  0  0  0  0  0  0  0  0  0
    2.0533    1.2133    0.0000 C   0  0  0  0  0  0  0  0  0  0  0  0
    2.7533    0.0000    0.0000 C   0  0  0  0  0  0  0  0  0  0  0  0
    4.1533    0.0000    0.0000 C   0  0  0  0  0  0  0  0  0  0  0  0
    4.8533    1.2133    0.0000 C   0  0  0  0  0  0  0  0  0  0  0  0
    4.8533    3.6400    0.0000 N   0  0  0  0  0  0  0  0  0  0  0  0
    6.2533    1.2133    0.0000 N   0  0  0  0  0  0  0  0  0  0  0  0
    0.6533    1.2133    0.0000 N   0  0  0  0  0  0  0  0  0  0  0  0
   -0.0000    2.4267    0.0000 O   0  0  0  0  0  0  0  0  0  0  0  0
   -0.0000    0.0000    0.0000 O   0  0  0  0  0  0  0  0  0  0  0  0
  1  2  2  0
  2  3  1  0
  3  4  2  0
  4  5  1  0
  5  6  2  0
  1  6  1  0
  1  7  1  0
  6  8  1  0
  3  9  1  0
  9 10  1  0
  9 11  2  0
M  CHG  2   9   1  10  -1
M  END
>  <Compound Name>  (186) 
4-nitro-o-phenylenediamine

>  <Formula>  (186) 
C6H7N3O2

>  <LogP>  (186) 
0.88

>  <LUMO>  (186) 
-0.857

>  <MOL_ID>  (186) 
194

>  <Activity>  (186) 
0.63

$$$$
1,2,3-trichloro-4-nitrobenzene
     RDKit          2D

 12 12  0  0  0  0  0  0  0  0999 V2000
    1.3526    1.2127    0.0000 C   0  0  0  0  0  0  0  0  0  0  0  0
    2.0522    0.0000    0.0000 C   0  0  0  0  0  0  0  0  0  0  0  0
    3.4514    0.0000    0.0000 C   0  0  0  0  0  0  0  0  0  0  0  0
    4.1510    1.2127    0.0000 C   0  0  0  0  0  0  0  0  0  0  0  0
    3.4514    2.4253    0.0000 C   0  0  0  0  0  0  0  0  0  0  0  0
    2.0522    2.4253    0.0000 C   0  0  0  0  0  0  0  0  0  0  0  0
   -0.0000    1.2127    0.0000 Cl  0  0  0  0  0  0  0  0  0  0  0  0
    1.3526    3.6380    0.0000 Cl  0  0  0  0  0  0  0  0  0  0  0  0
    4.1510    3.6380    0.0000 Cl  0  0  0  0  0  0  0  0  0  0  0  0
    5.5502    1.2127    0.0000 N   0  0  0  0  0  0  0  0  0  0  0  0
    6.2498    0.0000    0.0000 O   0  0  0  0  0  0  0  0  0  0  0  0
    6.2498    2.4253    0.0000 O   0  0  0  0  0  0  0  0  0  0  0  0
  1  2  2  0
  2  3  1  0
  3  4  2  0
  4  5  1  0
  5  6  2  0
  1  6  1  0
  1  7  1  0
  6  8  1  0
  5  9  1  0
  4 10  1  0
 10 11  1  0
 10 12  2  0
M  CHG  2  10   1  11  -1
M  END
>  <Compound Name>  (187) 
1,2,3-trichloro-4-nitrobenzene

>  <Formula>  (187) 
C6H2Cl3NO2

>  <LogP>  (187) 
3.61

>  <LUMO>  (187) 
-1.465

>  <MOL_ID>  (187) 
195

>  <Activity>  (187) 
-2.94

$$$$
1-methyl-2-nitrobenzimidazole
     RDKit          2D

 13 14  0  0  0  0  0  0  0  0999 V2000
   -0.0000    3.1733    0.0000 C   0  0  0  0  0  0  0  0  0  0  0  0
   -0.0000    1.7733    0.0000 C   0  0  0  0  0  0  0  0  0  0  0  0
    1.1667    1.0733    0.0000 C   0  0  0  0  0  0  0  0  0  0  0  0
    2.3800    1.7733    0.0000 C   0  0  0  0  0  0  0  0  0  0  0  0
    2.3800    3.1733    0.0000 C   0  0  0  0  0  0  0  0  0  0  0  0
    1.1667    3.8733    0.0000 C   0  0  0  0  0  0  0  0  0  0  0  0
    3.7333    1.3533    0.0000 N   0  0  0  0  0  0  0  0  0  0  0  0
    4.5266    2.4733    0.0000 C   0  0  0  0  0  0  0  0  0  0  0  0
    3.7333    3.5933    0.0000 N   0  0  0  0  0  0  0  0  0  0  0  0
    4.0600   -0.0000    0.0000 C   0  0  0  0  0  0  0  0  0  0  0  0
    5.9266    2.4733    0.0000 N   0  0  0  0  0  0  0  0  0  0  0  0
    6.6266    1.2600    0.0000 O   0  0  0  0  0  0  0  0  0  0  0  0
    6.6266    3.6866    0.0000 O   0  0  0  0  0  0  0  0  0  0  0  0
  1  2  2  0
  2  3  1  0
  3  4  2  0
  4  5  1  0
  5  6  2  0
  1  6  1  0
  4  7  1  0
  7  8  1  0
  8  9  2  0
  5  9  1  0
  7 10  1  0
  8 11  1  0
 11 12  1  0
 11 13  2  0
M  CHG  2  11   1  12  -1
M  END
>  <Compound Name>  (188) 
1-methyl-2-nitrobenzimidazole

>  <Formula>  (188) 
C8H8N3O2

>  <LogP>  (188) 
1.58

>  <LUMO>  (188) 
-1.293

>  <MOL_ID>  (188) 
197

>  <Activity>  (188) 
2.54

$$$$
6-nitrobenzo[a]pyrene
     RDKit          2D

 23 27  0  0  0  0  0  0  0  0999 V2000
    2.3800    4.2000    0.0000 C   0  0  0  0  0  0  0  0  0  0  0  0
    2.3800    2.8000    0.0000 C   0  0  0  0  0  0  0  0  0  0  0  0
    3.5933    2.1000    0.0000 C   0  0  0  0  0  0  0  0  0  0  0  0
    4.8066    2.8000    0.0000 C   0  0  0  0  0  0  0  0  0  0  0  0
    4.8066    4.2000    0.0000 C   0  0  0  0  0  0  0  0  0  0  0  0
    3.5933    4.9000    0.0000 C   0  0  0  0  0  0  0  0  0  0  0  0
    6.0200    4.9000    0.0000 C   0  0  0  0  0  0  0  0  0  0  0  0
    6.0200    6.3000    0.0000 C   0  0  0  0  0  0  0  0  0  0  0  0
    4.8066    6.9533    0.0000 C   0  0  0  0  0  0  0  0  0  0  0  0
    3.5933    6.3000    0.0000 C   0  0  0  0  0  0  0  0  0  0  0  0
    7.2333    4.2000    0.0000 C   0  0  0  0  0  0  0  0  0  0  0  0
    8.4466    4.9000    0.0000 C   0  0  0  0  0  0  0  0  0  0  0  0
    8.4466    6.3000    0.0000 C   0  0  0  0  0  0  0  0  0  0  0  0
    7.2333    6.9533    0.0000 C   0  0  0  0  0  0  0  0  0  0  0  0
    6.0200    2.1000    0.0000 C   0  0  0  0  0  0  0  0  0  0  0  0
    7.2333    2.8000    0.0000 C   0  0  0  0  0  0  0  0  0  0  0  0
    1.1667    4.9000    0.0000 C   0  0  0  0  0  0  0  0  0  0  0  0
   -0.0000    4.2000    0.0000 C   0  0  0  0  0  0  0  0  0  0  0  0
   -0.0000    2.8000    0.0000 C   0  0  0  0  0  0  0  0  0  0  0  0
    1.1667    2.1000    0.0000 C   0  0  0  0  0  0  0  0  0  0  0  0
    3.5933    0.7000    0.0000 N   0  0  0  0  0  0  0  0  0  0  0  0
    2.3800   -0.0000    0.0000 O   0  0  0  0  0  0  0  0  0  0  0  0
    4.8066   -0.0000    0.0000 O   0  0  0  0  0  0  0  0  0  0  0  0
  1  2  1  0
  2  3  2  0
  3  4  1  0
  4  5  2  0
  5  6  1  0
  1  6  2  0
  5  7  1  0
  7  8  2  0
  8  9  1  0
  9 10  2  0
  6 10  1  0
  7 11  1  0
 11 12  2  0
 12 13  1  0
 13 14  2  0
  8 14  1  0
  4 15  1  0
 15 16  2  0
 11 16  1  0
  1 17  1  0
 17 18  2  0
 18 19  1  0
 19 20  2  0
  2 20  1  0
  3 21  1  0
 21 22  1  0
 21 23  2  0
M  CHG  2  21   1  22  -1
M  END
>  <Compound Name>  (189) 
6-nitrobenzo[a]pyrene

>  <Formula>  (189) 
C20H11NO2

>  <LogP>  (189) 
5.87

>  <LUMO>  (189) 
-1.767

>  <MOL_ID>  (189) 
198

>  <Activity>  (189) 
1.64

$$$$
6-nitro-4,5-dihydrobenzo[a]pyrene
     RDKit          2D

 23 27  0  0  0  0  0  0  0  0999 V2000
    2.3800    4.2000    0.0000 C   0  0  0  0  0  0  0  0  0  0  0  0
    2.3800    2.8000    0.0000 C   0  0  0  0  0  0  0  0  0  0  0  0
    3.5467    2.1000    0.0000 C   0  0  0  0  0  0  0  0  0  0  0  0
    4.8067    2.8000    0.0000 C   0  0  0  0  0  0  0  0  0  0  0  0
    4.8067    4.2000    0.0000 C   0  0  0  0  0  0  0  0  0  0  0  0
    3.5467    4.9000    0.0000 C   0  0  0  0  0  0  0  0  0  0  0  0
    6.0200    4.9000    0.0000 C   0  0  0  0  0  0  0  0  0  0  0  0
    6.0200    6.3000    0.0000 C   0  0  0  0  0  0  0  0  0  0  0  0
    4.8067    6.9067    0.0000 C   0  0  0  0  0  0  0  0  0  0  0  0
    3.5467    6.3000    0.0000 C   0  0  0  0  0  0  0  0  0  0  0  0
    7.1867    4.2000    0.0000 C   0  0  0  0  0  0  0  0  0  0  0  0
    8.4467    4.9000    0.0000 C   0  0  0  0  0  0  0  0  0  0  0  0
    8.4467    6.3000    0.0000 C   0  0  0  0  0  0  0  0  0  0  0  0
    7.1867    6.9067    0.0000 C   0  0  0  0  0  0  0  0  0  0  0  0
    6.0200    2.1000    0.0000 C   0  0  0  0  0  0  0  0  0  0  0  0
    7.1867    2.8000    0.0000 C   0  0  0  0  0  0  0  0  0  0  0  0
    1.1667    4.9000    0.0000 C   0  0  0  0  0  0  0  0  0  0  0  0
    0.0000    4.2000    0.0000 C   0  0  0  0  0  0  0  0  0  0  0  0
    0.0000    2.8000    0.0000 C   0  0  0  0  0  0  0  0  0  0  0  0
    1.1667    2.1000    0.0000 C   0  0  0  0  0  0  0  0  0  0  0  0
    3.5467    0.7000    0.0000 N   0  0  0  0  0  0  0  0  0  0  0  0
    2.3800    0.0000    0.0000 O   0  0  0  0  0  0  0  0  0  0  0  0
    4.8067    0.0000    0.0000 O   0  0  0  0  0  0  0  0  0  0  0  0
  1  2  1  0
  2  3  2  0
  3  4  1  0
  4  5  2  0
  5  6  1  0
  1  6  2  0
  5  7  1  0
  7  8  2  0
  8  9  1  0
  9 10  2  0
  6 10  1  0
  7 11  1  0
 11 12  2  0
 12 13  1  0
 13 14  2  0
  8 14  1  0
  4 15  1  0
 15 16  1  0
 11 16  1  0
  1 17  1  0
 17 18  2  0
 18 19  1  0
 19 20  2  0
  2 20  1  0
  3 21  1  0
 21 22  1  0
 21 23  2  0
M  CHG  2  21   1  22  -1
M  END
>  <Compound Name>  (190) 
6-nitro-4,5-dihydrobenzo[a]pyrene

>  <Formula>  (190) 
C20H13NO2

>  <LogP>  (190) 
6.16

>  <LUMO>  (190) 
-1.35

>  <MOL_ID>  (190) 
199

>  <Activity>  (190) 
0.3

$$$$
1-methyl-5-nitroindoline
     RDKit          2D

 13 14  0  0  0  0  0  0  0  0999 V2000
    2.3800    3.1733    0.0000 C   0  0  0  0  0  0  0  0  0  0  0  0
    2.3800    1.7733    0.0000 C   0  0  0  0  0  0  0  0  0  0  0  0
    3.5933    1.0733    0.0000 C   0  0  0  0  0  0  0  0  0  0  0  0
    4.8067    1.7733    0.0000 C   0  0  0  0  0  0  0  0  0  0  0  0
    4.8067    3.1733    0.0000 C   0  0  0  0  0  0  0  0  0  0  0  0
    3.5933    3.8733    0.0000 C   0  0  0  0  0  0  0  0  0  0  0  0
    6.1133    1.3533    0.0000 N   0  0  0  0  0  0  0  0  0  0  0  0
    6.9533    2.4733    0.0000 C   0  0  0  0  0  0  0  0  0  0  0  0
    6.1133    3.5933    0.0000 C   0  0  0  0  0  0  0  0  0  0  0  0
    6.4867    0.0000    0.0000 C   0  0  0  0  0  0  0  0  0  0  0  0
    1.1667    3.8733    0.0000 N   0  0  0  0  0  0  0  0  0  0  0  0
    1.1667    5.2733    0.0000 O   0  0  0  0  0  0  0  0  0  0  0  0
   -0.0000    3.1733    0.0000 O   0  0  0  0  0  0  0  0  0  0  0  0
  1  2  2  0
  2  3  1  0
  3  4  2  0
  4  5  1  0
  5  6  2  0
  1  6  1  0
  4  7  1  0
  7  8  1  0
  8  9  1  0
  5  9  1  0
  7 10  1  0
  1 11  1  0
 11 12  1  0
 11 13  2  0
M  CHG  2  11   1  12  -1
M  END
>  <Compound Name>  (191) 
1-methyl-5-nitroindoline

>  <Formula>  (191) 
C9H10N2O2

>  <LogP>  (191) 
2.86

>  <LUMO>  (191) 
-0.56

>  <MOL_ID>  (191) 
200

>  <Activity>  (191) 
-99

$$$$
1-methyl-5-nitroindole
     RDKit          2D

 13 14  0  0  0  0  0  0  0  0999 V2000
    2.3800    3.1733    0.0000 C   0  0  0  0  0  0  0  0  0  0  0  0
    2.3800    1.7733    0.0000 C   0  0  0  0  0  0  0  0  0  0  0  0
    3.5933    1.0733    0.0000 C   0  0  0  0  0  0  0  0  0  0  0  0
    4.8067    1.7733    0.0000 C   0  0  0  0  0  0  0  0  0  0  0  0
    4.8067    3.1733    0.0000 C   0  0  0  0  0  0  0  0  0  0  0  0
    3.5933    3.8733    0.0000 C   0  0  0  0  0  0  0  0  0  0  0  0
    6.1133    1.3533    0.0000 N   0  0  0  0  0  0  0  0  0  0  0  0
    6.9533    2.4733    0.0000 C   0  0  0  0  0  0  0  0  0  0  0  0
    6.1133    3.5933    0.0000 C   0  0  0  0  0  0  0  0  0  0  0  0
    6.4867    0.0000    0.0000 C   0  0  0  0  0  0  0  0  0  0  0  0
    1.1667    3.8733    0.0000 N   0  0  0  0  0  0  0  0  0  0  0  0
    1.1667    5.2733    0.0000 O   0  0  0  0  0  0  0  0  0  0  0  0
   -0.0000    3.1733    0.0000 O   0  0  0  0  0  0  0  0  0  0  0  0
  1  2  2  0
  2  3  1  0
  3  4  2  0
  4  5  1  0
  5  6  2  0
  1  6  1  0
  4  7  1  0
  7  8  1  0
  8  9  2  0
  5  9  1  0
  7 10  1  0
  1 11  1  0
 11 12  1  0
 11 13  2  0
M  CHG  2  11   1  12  -1
M  END
>  <Compound Name>  (192) 
1-methyl-5-nitroindole

>  <Formula>  (192) 
C9H9N2O2

>  <LogP>  (192) 
2.5

>  <LUMO>  (192) 
-0.746

>  <MOL_ID>  (192) 
201

>  <Activity>  (192) 
-99

$$$$
nitrobenzene
     RDKit          2D

  9  9  0  0  0  0  0  0  0  0999 V2000
   -0.0000    1.2133    0.0000 C   0  0  0  0  0  0  0  0  0  0  0  0
    0.6533   -0.0000    0.0000 C   0  0  0  0  0  0  0  0  0  0  0  0
    2.0533   -0.0000    0.0000 C   0  0  0  0  0  0  0  0  0  0  0  0
    2.7533    1.2133    0.0000 C   0  0  0  0  0  0  0  0  0  0  0  0
    2.0533    2.3800    0.0000 C   0  0  0  0  0  0  0  0  0  0  0  0
    0.6533    2.3800    0.0000 C   0  0  0  0  0  0  0  0  0  0  0  0
    4.1533    1.2133    0.0000 N   0  0  0  0  0  0  0  0  0  0  0  0
    4.8533   -0.0000    0.0000 O   0  0  0  0  0  0  0  0  0  0  0  0
    4.8533    2.3800    0.0000 O   0  0  0  0  0  0  0  0  0  0  0  0
  1  2  2  0
  2  3  1  0
  3  4  2  0
  4  5  1  0
  5  6  2  0
  1  6  1  0
  4  7  1  0
  7  8  1  0
  7  9  2  0
M  CHG  2   7   1   8  -1
M  END
>  <Compound Name>  (193) 
nitrobenzene

>  <Formula>  (193) 
C6H5NO2

>  <LogP>  (193) 
1.85

>  <LUMO>  (193) 
-1.089

>  <MOL_ID>  (193) 
202

>  <Activity>  (193) 
-99

$$$$
1-methyl-7-nitroindole
     RDKit          2D

 13 14  0  0  0  0  0  0  0  0999 V2000
   -0.0000    4.2000    0.0000 C   0  0  0  0  0  0  0  0  0  0  0  0
   -0.0000    2.8000    0.0000 C   0  0  0  0  0  0  0  0  0  0  0  0
    1.1667    2.1000    0.0000 C   0  0  0  0  0  0  0  0  0  0  0  0
    2.3800    2.8000    0.0000 C   0  0  0  0  0  0  0  0  0  0  0  0
    2.3800    4.2000    0.0000 C   0  0  0  0  0  0  0  0  0  0  0  0
    1.1667    4.8533    0.0000 C   0  0  0  0  0  0  0  0  0  0  0  0
    3.6867    2.3800    0.0000 N   0  0  0  0  0  0  0  0  0  0  0  0
    4.5267    3.5000    0.0000 C   0  0  0  0  0  0  0  0  0  0  0  0
    3.6867    4.6200    0.0000 C   0  0  0  0  0  0  0  0  0  0  0  0
    4.0600    1.0267    0.0000 C   0  0  0  0  0  0  0  0  0  0  0  0
    1.1667    0.7000    0.0000 N   0  0  0  0  0  0  0  0  0  0  0  0
   -0.0000   -0.0000    0.0000 O   0  0  0  0  0  0  0  0  0  0  0  0
    2.3800   -0.0000    0.0000 O   0  0  0  0  0  0  0  0  0  0  0  0
  1  2  2  0
  2  3  1  0
  3  4  2  0
  4  5  1  0
  5  6  2  0
  1  6  1  0
  4  7  1  0
  7  8  1  0
  8  9  2  0
  5  9  1  0
  7 10  1  0
  3 11  1  0
 11 12  1  0
 11 13  2  0
M  CHG  2  11   1  12  -1
M  END
>  <Compound Name>  (194) 
1-methyl-7-nitroindole

>  <Formula>  (194) 
C9H9N2O2

>  <LogP>  (194) 
2.5

>  <LUMO>  (194) 
-0.868

>  <MOL_ID>  (194) 
203

>  <Activity>  (194) 
-99

$$$$
2-fluoronitrobenzene
     RDKit          2D

 10 10  0  0  0  0  0  0  0  0999 V2000
    0.0000    1.2127    0.0000 C   0  0  0  0  0  0  0  0  0  0  0  0
    0.6530    0.0000    0.0000 C   0  0  0  0  0  0  0  0  0  0  0  0
    2.0522    0.0000    0.0000 C   0  0  0  0  0  0  0  0  0  0  0  0
    2.7518    1.2127    0.0000 C   0  0  0  0  0  0  0  0  0  0  0  0
    2.0522    2.4253    0.0000 C   0  0  0  0  0  0  0  0  0  0  0  0
    0.6530    2.4253    0.0000 C   0  0  0  0  0  0  0  0  0  0  0  0
    2.7518    3.6380    0.0000 F   0  0  0  0  0  0  0  0  0  0  0  0
    4.1510    1.2127    0.0000 N   0  0  0  0  0  0  0  0  0  0  0  0
    4.8506    0.0000    0.0000 O   0  0  0  0  0  0  0  0  0  0  0  0
    4.8506    2.4253    0.0000 O   0  0  0  0  0  0  0  0  0  0  0  0
  1  2  2  0
  2  3  1  0
  3  4  2  0
  4  5  1  0
  5  6  2  0
  1  6  1  0
  5  7  1  0
  4  8  1  0
  8  9  1  0
  8 10  2  0
M  CHG  2   8   1   9  -1
M  END
>  <Compound Name>  (195) 
2-fluoronitrobenzene

>  <Formula>  (195) 
C6H4FNO2

>  <LogP>  (195) 
1.69

>  <LUMO>  (195) 
-1.321

>  <MOL_ID>  (195) 
206

>  <Activity>  (195) 
-99

$$$$
3-fluoronitrobenzene
     RDKit          2D

 10 10  0  0  0  0  0  0  0  0999 V2000
   -0.0000    1.2133    0.0000 C   0  0  0  0  0  0  0  0  0  0  0  0
    0.6533    0.0000    0.0000 C   0  0  0  0  0  0  0  0  0  0  0  0
    2.0533    0.0000    0.0000 C   0  0  0  0  0  0  0  0  0  0  0  0
    2.7533    1.2133    0.0000 C   0  0  0  0  0  0  0  0  0  0  0  0
    2.0533    2.4266    0.0000 C   0  0  0  0  0  0  0  0  0  0  0  0
    0.6533    2.4266    0.0000 C   0  0  0  0  0  0  0  0  0  0  0  0
   -0.0000    3.6400    0.0000 F   0  0  0  0  0  0  0  0  0  0  0  0
    4.1533    1.2133    0.0000 N   0  0  0  0  0  0  0  0  0  0  0  0
    4.8533    0.0000    0.0000 O   0  0  0  0  0  0  0  0  0  0  0  0
    4.8533    2.4266    0.0000 O   0  0  0  0  0  0  0  0  0  0  0  0
  1  2  2  0
  2  3  1  0
  3  4  2  0
  4  5  1  0
  5  6  2  0
  1  6  1  0
  6  7  1  0
  4  8  1  0
  8  9  1  0
  8 10  2  0
M  CHG  2   8   1   9  -1
M  END
>  <Compound Name>  (196) 
3-fluoronitrobenzene

>  <Formula>  (196) 
C6H4FNO2

>  <LogP>  (196) 
1.9

>  <LUMO>  (196) 
-1.358

>  <MOL_ID>  (196) 
208

>  <Activity>  (196) 
-99

$$$$
1,2-dinitrobenzene
     RDKit          2D

 12 12  0  0  0  0  0  0  0  0999 V2000
    2.0533    2.4266    0.0000 C   0  0  0  0  0  0  0  0  0  0  0  0
    0.6533    2.4266    0.0000 C   0  0  0  0  0  0  0  0  0  0  0  0
   -0.0000    1.2133    0.0000 C   0  0  0  0  0  0  0  0  0  0  0  0
    0.6533   -0.0000    0.0000 C   0  0  0  0  0  0  0  0  0  0  0  0
    2.0533   -0.0000    0.0000 C   0  0  0  0  0  0  0  0  0  0  0  0
    2.7533    1.2133    0.0000 C   0  0  0  0  0  0  0  0  0  0  0  0
    4.1533    1.2133    0.0000 N   0  0  0  0  0  0  0  0  0  0  0  0
    4.8533   -0.0000    0.0000 O   0  0  0  0  0  0  0  0  0  0  0  0
    4.8533    2.4266    0.0000 O   0  0  0  0  0  0  0  0  0  0  0  0
    2.7533    3.6400    0.0000 N   0  0  0  0  0  0  0  0  0  0  0  0
    4.1533    3.6400    0.0000 O   0  0  0  0  0  0  0  0  0  0  0  0
    2.0533    4.8066    0.0000 O   0  0  0  0  0  0  0  0  0  0  0  0
  1  2  2  0
  2  3  1  0
  3  4  2  0
  4  5  1  0
  5  6  2  0
  1  6  1  0
  6  7  1  0
  7  8  1  0
  7  9  2  0
  1 10  1  0
 10 11  1  0
 10 12  2  0
M  CHG  4   7   1   8  -1  10   1  11  -1
M  END
>  <Compound Name>  (197) 
1,2-dinitrobenzene

>  <Formula>  (197) 
C6H4N2O4

>  <LogP>  (197) 
1.58

>  <LUMO>  (197) 
-1.834

>  <MOL_ID>  (197) 
209

>  <Activity>  (197) 
-99

$$$$
3-chloronitrobenzene
     RDKit          2D

 10 10  0  0  0  0  0  0  0  0999 V2000
   -0.0000    1.2133    0.0000 C   0  0  0  0  0  0  0  0  0  0  0  0
    0.6533    0.0000    0.0000 C   0  0  0  0  0  0  0  0  0  0  0  0
    2.0533    0.0000    0.0000 C   0  0  0  0  0  0  0  0  0  0  0  0
    2.7533    1.2133    0.0000 C   0  0  0  0  0  0  0  0  0  0  0  0
    2.0533    2.4266    0.0000 C   0  0  0  0  0  0  0  0  0  0  0  0
    0.6533    2.4266    0.0000 C   0  0  0  0  0  0  0  0  0  0  0  0
   -0.0000    3.6400    0.0000 Cl  0  0  0  0  0  0  0  0  0  0  0  0
    4.1533    1.2133    0.0000 N   0  0  0  0  0  0  0  0  0  0  0  0
    4.8533    0.0000    0.0000 O   0  0  0  0  0  0  0  0  0  0  0  0
    4.8533    2.4266    0.0000 O   0  0  0  0  0  0  0  0  0  0  0  0
  1  2  2  0
  2  3  1  0
  3  4  2  0
  4  5  1  0
  5  6  2  0
  1  6  1  0
  6  7  1  0
  4  8  1  0
  8  9  1  0
  8 10  2  0
M  CHG  2   8   1   9  -1
M  END
>  <Compound Name>  (198) 
3-chloronitrobenzene

>  <Formula>  (198) 
C6H4ClNO2

>  <LogP>  (198) 
2.41

>  <LUMO>  (198) 
-1.306

>  <MOL_ID>  (198) 
210

>  <Activity>  (198) 
-99

$$$$
4-chloronitrobenzene
     RDKit          2D

 10 10  0  0  0  0  0  0  0  0999 V2000
    3.4533    2.3800    0.0000 C   0  0  0  0  0  0  0  0  0  0  0  0
    2.0533    2.3800    0.0000 C   0  0  0  0  0  0  0  0  0  0  0  0
    1.3533    1.2133    0.0000 C   0  0  0  0  0  0  0  0  0  0  0  0
    2.0533   -0.0000    0.0000 C   0  0  0  0  0  0  0  0  0  0  0  0
    3.4533   -0.0000    0.0000 C   0  0  0  0  0  0  0  0  0  0  0  0
    4.1533    1.2133    0.0000 C   0  0  0  0  0  0  0  0  0  0  0  0
    0.0000    1.2133    0.0000 Cl  0  0  0  0  0  0  0  0  0  0  0  0
    5.5533    1.2133    0.0000 N   0  0  0  0  0  0  0  0  0  0  0  0
    6.2533   -0.0000    0.0000 O   0  0  0  0  0  0  0  0  0  0  0  0
    6.2533    2.3800    0.0000 O   0  0  0  0  0  0  0  0  0  0  0  0
  1  2  2  0
  2  3  1  0
  3  4  2  0
  4  5  1  0
  5  6  2  0
  1  6  1  0
  3  7  1  0
  6  8  1  0
  8  9  1  0
  8 10  2  0
M  CHG  2   8   1   9  -1
M  END
>  <Compound Name>  (199) 
4-chloronitrobenzene

>  <Formula>  (199) 
C6H4ClNO2

>  <LogP>  (199) 
2.39

>  <LUMO>  (199) 
-1.36

>  <MOL_ID>  (199) 
211

>  <Activity>  (199) 
-99

$$$$
7-nitrobenz[a]anthracene
     RDKit          2D

 21 24  0  0  0  0  0  0  0  0999 V2000
   -0.0000    4.1977    0.0000 C   0  0  0  0  0  0  0  0  0  0  0  0
   -0.0000    2.7985    0.0000 C   0  0  0  0  0  0  0  0  0  0  0  0
    1.1660    2.0989    0.0000 C   0  0  0  0  0  0  0  0  0  0  0  0
    2.3787    2.7985    0.0000 C   0  0  0  0  0  0  0  0  0  0  0  0
    2.3787    4.1977    0.0000 C   0  0  0  0  0  0  0  0  0  0  0  0
    1.1660    4.8973    0.0000 C   0  0  0  0  0  0  0  0  0  0  0  0
    3.5914    2.0989    0.0000 C   0  0  0  0  0  0  0  0  0  0  0  0
    4.8040    2.7985    0.0000 C   0  0  0  0  0  0  0  0  0  0  0  0
    4.8040    4.1977    0.0000 C   0  0  0  0  0  0  0  0  0  0  0  0
    3.5914    4.8973    0.0000 C   0  0  0  0  0  0  0  0  0  0  0  0
    6.0167    2.0989    0.0000 C   0  0  0  0  0  0  0  0  0  0  0  0
    7.2294    2.7985    0.0000 C   0  0  0  0  0  0  0  0  0  0  0  0
    7.2294    4.1977    0.0000 C   0  0  0  0  0  0  0  0  0  0  0  0
    6.0167    4.8973    0.0000 C   0  0  0  0  0  0  0  0  0  0  0  0
    8.4420    4.8973    0.0000 C   0  0  0  0  0  0  0  0  0  0  0  0
    8.4420    6.2966    0.0000 C   0  0  0  0  0  0  0  0  0  0  0  0
    7.2294    6.9495    0.0000 C   0  0  0  0  0  0  0  0  0  0  0  0
    6.0167    6.2966    0.0000 C   0  0  0  0  0  0  0  0  0  0  0  0
    3.5914    0.6996    0.0000 N   0  0  0  0  0  0  0  0  0  0  0  0
    2.3787   -0.0000    0.0000 O   0  0  0  0  0  0  0  0  0  0  0  0
    4.8040   -0.0000    0.0000 O   0  0  0  0  0  0  0  0  0  0  0  0
  1  2  2  0
  2  3  1  0
  3  4  2  0
  4  5  1  0
  5  6  2  0
  1  6  1  0
  4  7  1  0
  7  8  2  0
  8  9  1  0
  9 10  2  0
  5 10  1  0
  8 11  1  0
 11 12  2  0
 12 13  1  0
 13 14  2  0
  9 14  1  0
 13 15  1  0
 15 16  2  0
 16 17  1  0
 17 18  2  0
 14 18  1  0
  7 19  1  0
 19 20  1  0
 19 21  2  0
M  CHG  2  19   1  20  -1
M  END
>  <Compound Name>  (200) 
7-nitrobenz[a]anthracene

>  <Formula>  (200) 
C18H11NO2

>  <LogP>  (200) 
5.41

>  <LUMO>  (200) 
-1.723

>  <MOL_ID>  (200) 
212

>  <Activity>  (200) 
-0.52

$$$$
2,4-dichloronitrobenzene
     RDKit          2D

 11 11  0  0  0  0  0  0  0  0999 V2000
    3.4514    0.0000    0.0000 C   0  0  0  0  0  0  0  0  0  0  0  0
    4.1510    1.2127    0.0000 C   0  0  0  0  0  0  0  0  0  0  0  0
    3.4514    2.4253    0.0000 C   0  0  0  0  0  0  0  0  0  0  0  0
    2.0522    2.4253    0.0000 C   0  0  0  0  0  0  0  0  0  0  0  0
    1.3526    1.2127    0.0000 C   0  0  0  0  0  0  0  0  0  0  0  0
    2.0522    0.0000    0.0000 C   0  0  0  0  0  0  0  0  0  0  0  0
    4.1510    3.6380    0.0000 Cl  0  0  0  0  0  0  0  0  0  0  0  0
   -0.0000    1.2127    0.0000 Cl  0  0  0  0  0  0  0  0  0  0  0  0
    5.5502    1.2127    0.0000 N   0  0  0  0  0  0  0  0  0  0  0  0
    6.2498    0.0000    0.0000 O   0  0  0  0  0  0  0  0  0  0  0  0
    6.2498    2.4253    0.0000 O   0  0  0  0  0  0  0  0  0  0  0  0
  1  2  2  0
  2  3  1  0
  3  4  2  0
  4  5  1  0
  5  6  2  0
  1  6  1  0
  3  7  1  0
  5  8  1  0
  2  9  1  0
  9 10  1  0
  9 11  2  0
M  CHG  2   9   1  10  -1
M  END
>  <Compound Name>  (201) 
2,4-dichloronitrobenzene

>  <Formula>  (201) 
C6H3Cl2NO2

>  <LogP>  (201) 
3.09

>  <LUMO>  (201) 
-1.351

>  <MOL_ID>  (201) 
213

>  <Activity>  (201) 
-99

$$$$
9-nitroanthracene
     RDKit          2D

 17 19  0  0  0  0  0  0  0  0999 V2000
   -0.0000    2.0989    0.0000 C   0  0  0  0  0  0  0  0  0  0  0  0
   -0.0000    0.6996    0.0000 C   0  0  0  0  0  0  0  0  0  0  0  0
    1.1660    0.0000    0.0000 C   0  0  0  0  0  0  0  0  0  0  0  0
    2.3787    0.6996    0.0000 C   0  0  0  0  0  0  0  0  0  0  0  0
    2.3787    2.0989    0.0000 C   0  0  0  0  0  0  0  0  0  0  0  0
    1.1660    2.7985    0.0000 C   0  0  0  0  0  0  0  0  0  0  0  0
    3.5914    0.0000    0.0000 C   0  0  0  0  0  0  0  0  0  0  0  0
    4.8040    0.6996    0.0000 C   0  0  0  0  0  0  0  0  0  0  0  0
    4.8040    2.0989    0.0000 C   0  0  0  0  0  0  0  0  0  0  0  0
    3.5914    2.7985    0.0000 C   0  0  0  0  0  0  0  0  0  0  0  0
    6.0167    0.0000    0.0000 C   0  0  0  0  0  0  0  0  0  0  0  0
    7.2294    0.6996    0.0000 C   0  0  0  0  0  0  0  0  0  0  0  0
    7.2294    2.0989    0.0000 C   0  0  0  0  0  0  0  0  0  0  0  0
    6.0167    2.7985    0.0000 C   0  0  0  0  0  0  0  0  0  0  0  0
    3.5914    4.1977    0.0000 N   0  0  0  0  0  0  0  0  0  0  0  0
    4.8040    4.8507    0.0000 O   0  0  0  0  0  0  0  0  0  0  0  0
    2.3787    4.8507    0.0000 O   0  0  0  0  0  0  0  0  0  0  0  0
  1  2  2  0
  2  3  1  0
  3  4  2  0
  4  5  1  0
  5  6  2  0
  1  6  1  0
  4  7  1  0
  7  8  2  0
  8  9  1  0
  9 10  2  0
  5 10  1  0
  8 11  1  0
 11 12  2  0
 12 13  1  0
 13 14  2  0
  9 14  1  0
 10 15  1  0
 15 16  1  0
 15 17  2  0
M  CHG  2  15   1  16  -1
M  END
>  <Compound Name>  (202) 
9-nitroanthracene

>  <Formula>  (202) 
C14H9NO2

>  <LogP>  (202) 
4.78

>  <LUMO>  (202) 
-1.755

>  <MOL_ID>  (202) 
214

>  <Activity>  (202) 
-0.95

$$$$
3,4-dichloronitrobenzene
     RDKit          2D

 11 11  0  0  0  0  0  0  0  0999 V2000
    1.3526    1.2127    0.0000 C   0  0  0  0  0  0  0  0  0  0  0  0
    2.0522    0.0000    0.0000 C   0  0  0  0  0  0  0  0  0  0  0  0
    3.4514    0.0000    0.0000 C   0  0  0  0  0  0  0  0  0  0  0  0
    4.1510    1.2127    0.0000 C   0  0  0  0  0  0  0  0  0  0  0  0
    3.4514    2.4253    0.0000 C   0  0  0  0  0  0  0  0  0  0  0  0
    2.0522    2.4253    0.0000 C   0  0  0  0  0  0  0  0  0  0  0  0
    1.3526    3.6380    0.0000 Cl  0  0  0  0  0  0  0  0  0  0  0  0
   -0.0000    1.2127    0.0000 Cl  0  0  0  0  0  0  0  0  0  0  0  0
    5.5502    1.2127    0.0000 N   0  0  0  0  0  0  0  0  0  0  0  0
    6.2498    0.0000    0.0000 O   0  0  0  0  0  0  0  0  0  0  0  0
    6.2498    2.4253    0.0000 O   0  0  0  0  0  0  0  0  0  0  0  0
  1  2  2  0
  2  3  1  0
  3  4  2  0
  4  5  1  0
  5  6  2  0
  1  6  1  0
  6  7  1  0
  1  8  1  0
  4  9  1  0
  9 10  1  0
  9 11  2  0
M  CHG  2   9   1  10  -1
M  END
>  <Compound Name>  (203) 
3,4-dichloronitrobenzene

>  <Formula>  (203) 
C6H3Cl2NO2

>  <LogP>  (203) 
3.12

>  <LUMO>  (203) 
-1.538

>  <MOL_ID>  (203) 
215

>  <Activity>  (203) 
-99

$$$$
trans-1,2-dihydro-9-nitroanthracene-1,2-diol
     RDKit          2D

 19 21  0  0  0  0  0  0  0  0999 V2000
   -0.0000    2.0988    0.0000 C   0  0  0  0  0  0  0  0  0  0  0  0
   -0.0000    0.6996    0.0000 C   0  0  0  0  0  0  0  0  0  0  0  0
    1.1660   -0.0000    0.0000 C   0  0  0  0  0  0  0  0  0  0  0  0
    2.3787    0.6996    0.0000 C   0  0  0  0  0  0  0  0  0  0  0  0
    2.3787    2.0988    0.0000 C   0  0  0  0  0  0  0  0  0  0  0  0
    1.1660    2.7985    0.0000 C   0  0  0  0  0  0  0  0  0  0  0  0
    3.5914   -0.0000    0.0000 C   0  0  0  0  0  0  0  0  0  0  0  0
    4.8040    0.6996    0.0000 C   0  0  0  0  0  0  0  0  0  0  0  0
    4.8040    2.0988    0.0000 C   0  0  0  0  0  0  0  0  0  0  0  0
    3.5914    2.7985    0.0000 C   0  0  0  0  0  0  0  0  0  0  0  0
    6.0167   -0.0000    0.0000 C   0  0  0  0  0  0  0  0  0  0  0  0
    7.2293    0.6996    0.0000 C   0  0  0  0  0  0  0  0  0  0  0  0
    7.2293    2.0988    0.0000 C   0  0  0  0  0  0  0  0  0  0  0  0
    6.0167    2.7985    0.0000 C   0  0  0  0  0  0  0  0  0  0  0  0
    6.0167    4.1977    0.0000 O   0  0  0  0  0  0  0  0  0  0  0  0
    8.4420    2.7985    0.0000 O   0  0  0  0  0  0  0  0  0  0  0  0
    3.5914    4.1977    0.0000 N   0  0  0  0  0  0  0  0  0  0  0  0
    4.8040    4.8973    0.0000 O   0  0  0  0  0  0  0  0  0  0  0  0
    2.3787    4.8973    0.0000 O   0  0  0  0  0  0  0  0  0  0  0  0
  1  2  2  0
  2  3  1  0
  3  4  2  0
  4  5  1  0
  5  6  2  0
  1  6  1  0
  4  7  1  0
  7  8  2  0
  8  9  1  0
  9 10  2  0
  5 10  1  0
  8 11  1  0
 11 12  2  0
 12 13  1  0
 13 14  1  0
  9 14  1  0
 14 15  1  6
 13 16  1  1
 10 17  1  0
 17 18  1  0
 17 19  2  0
M  CHG  2  17   1  18  -1
M  END
>  <Compound Name>  (204) 
trans-1,2-dihydro-9-nitroanthracene-1,2-diol

>  <Formula>  (204) 
C14H11NO4

>  <LogP>  (204) 
1.38

>  <LUMO>  (204) 
-1.392

>  <MOL_ID>  (204) 
216

>  <Activity>  (204) 
-99

$$$$
trans-3,4-dihydro-9-nitroanthracene-3,4-diol
     RDKit          2D

 19 21  0  0  0  0  0  0  0  0999 V2000
   -0.0000    3.5083    0.0000 C   0  0  0  0  0  0  0  0  0  0  0  0
   -0.0000    2.0860    0.0000 C   0  0  0  0  0  0  0  0  0  0  0  0
    1.1852    1.4223    0.0000 C   0  0  0  0  0  0  0  0  0  0  0  0
    2.4179    2.0860    0.0000 C   0  0  0  0  0  0  0  0  0  0  0  0
    2.4179    3.5083    0.0000 C   0  0  0  0  0  0  0  0  0  0  0  0
    1.1852    4.1721    0.0000 C   0  0  0  0  0  0  0  0  0  0  0  0
    3.6505    1.4223    0.0000 C   0  0  0  0  0  0  0  0  0  0  0  0
    4.8832    2.0860    0.0000 C   0  0  0  0  0  0  0  0  0  0  0  0
    4.8832    3.5083    0.0000 C   0  0  0  0  0  0  0  0  0  0  0  0
    3.6505    4.1721    0.0000 C   0  0  0  0  0  0  0  0  0  0  0  0
    6.1159    1.4223    0.0000 C   0  0  0  0  0  0  0  0  0  0  0  0
    7.3959    2.0860    0.0000 C   0  0  0  0  0  0  0  0  0  0  0  0
    7.3959    3.5083    0.0000 C   0  0  0  0  0  0  0  0  0  0  0  0
    6.1159    4.1721    0.0000 C   0  0  0  0  0  0  0  0  0  0  0  0
    6.1159   -0.0000    0.0000 O   0  0  0  0  0  0  0  0  0  0  0  0
    8.6286    1.4223    0.0000 O   0  0  0  0  0  0  0  0  0  0  0  0
    3.6505    5.6418    0.0000 N   0  0  0  0  0  0  0  0  0  0  0  0
    4.8832    6.3055    0.0000 O   0  0  0  0  0  0  0  0  0  0  0  0
    2.4179    6.3055    0.0000 O   0  0  0  0  0  0  0  0  0  0  0  0
  1  2  2  0
  2  3  1  0
  3  4  2  0
  4  5  1  0
  5  6  2  0
  1  6  1  0
  4  7  1  0
  7  8  2  0
  8  9  1  0
  9 10  2  0
  5 10  1  0
  8 11  1  0
 11 12  1  0
 12 13  1  0
 13 14  2  0
  9 14  1  0
 11 15  1  6
 12 16  1  1
 10 17  1  0
 17 18  1  0
 17 19  2  0
M  CHG  2  17   1  18  -1
M  END
>  <Compound Name>  (205) 
trans-3,4-dihydro-9-nitroanthracene-3,4-diol

>  <Formula>  (205) 
C14H11NO4

>  <LogP>  (205) 
1.38

>  <LUMO>  (205) 
-1.447

>  <MOL_ID>  (205) 
217

>  <Activity>  (205) 
-99

$$$$
6-nitro-7,8,9,10-tetrahydrobenzo[a]pyrene
     RDKit          2D

 23 27  0  0  0  0  0  0  0  0999 V2000
    2.3800    4.2000    0.0000 C   0  0  0  0  0  0  0  0  0  0  0  0
    2.3800    2.8000    0.0000 C   0  0  0  0  0  0  0  0  0  0  0  0
    3.5933    2.1000    0.0000 C   0  0  0  0  0  0  0  0  0  0  0  0
    4.8066    2.8000    0.0000 C   0  0  0  0  0  0  0  0  0  0  0  0
    4.8066    4.2000    0.0000 C   0  0  0  0  0  0  0  0  0  0  0  0
    3.5933    4.9000    0.0000 C   0  0  0  0  0  0  0  0  0  0  0  0
    6.0200    4.9000    0.0000 C   0  0  0  0  0  0  0  0  0  0  0  0
    6.0200    6.3000    0.0000 C   0  0  0  0  0  0  0  0  0  0  0  0
    4.8066    6.9533    0.0000 C   0  0  0  0  0  0  0  0  0  0  0  0
    3.5933    6.3000    0.0000 C   0  0  0  0  0  0  0  0  0  0  0  0
    7.2333    4.2000    0.0000 C   0  0  0  0  0  0  0  0  0  0  0  0
    8.4466    4.9000    0.0000 C   0  0  0  0  0  0  0  0  0  0  0  0
    8.4466    6.3000    0.0000 C   0  0  0  0  0  0  0  0  0  0  0  0
    7.2333    6.9533    0.0000 C   0  0  0  0  0  0  0  0  0  0  0  0
    6.0200    2.1000    0.0000 C   0  0  0  0  0  0  0  0  0  0  0  0
    7.2333    2.8000    0.0000 C   0  0  0  0  0  0  0  0  0  0  0  0
    1.1667    4.9000    0.0000 C   0  0  0  0  0  0  0  0  0  0  0  0
   -0.0000    4.2000    0.0000 C   0  0  0  0  0  0  0  0  0  0  0  0
   -0.0000    2.8000    0.0000 C   0  0  0  0  0  0  0  0  0  0  0  0
    1.1667    2.1000    0.0000 C   0  0  0  0  0  0  0  0  0  0  0  0
    3.5933    0.7000    0.0000 N   0  0  0  0  0  0  0  0  0  0  0  0
    2.3800   -0.0000    0.0000 O   0  0  0  0  0  0  0  0  0  0  0  0
    4.8066   -0.0000    0.0000 O   0  0  0  0  0  0  0  0  0  0  0  0
  1  2  1  0
  2  3  2  0
  3  4  1  0
  4  5  2  0
  5  6  1  0
  1  6  2  0
  5  7  1  0
  7  8  2  0
  8  9  1  0
  9 10  2  0
  6 10  1  0
  7 11  1  0
 11 12  2  0
 12 13  1  0
 13 14  2  0
  8 14  1  0
  4 15  1  0
 15 16  2  0
 11 16  1  0
  1 17  1  0
 17 18  1  0
 18 19  1  0
 19 20  1  0
  2 20  1  0
  3 21  1  0
 21 22  1  0
 21 23  2  0
M  CHG  2  21   1  22  -1
M  END
>  <Compound Name>  (206) 
6-nitro-7,8,9,10-tetrahydrobenzo[a]pyrene

>  <Formula>  (206) 
C20H15NO2

>  <LogP>  (206) 
6.57

>  <LUMO>  (206) 
-1.717

>  <MOL_ID>  (206) 
218

>  <Activity>  (206) 
-99

$$$$
t-8,9-dihydro-7-nitrobenz[a]anthracene-8,9-diol
     RDKit          2D

 23 26  0  0  0  0  0  0  0  0999 V2000
    1.1667    4.2000    0.0000 C   0  0  0  0  0  0  0  0  0  0  0  0
    1.1667    2.8000    0.0000 C   0  0  0  0  0  0  0  0  0  0  0  0
    2.3800    2.1000    0.0000 C   0  0  0  0  0  0  0  0  0  0  0  0
    3.5467    2.8000    0.0000 C   0  0  0  0  0  0  0  0  0  0  0  0
    3.5467    4.2000    0.0000 C   0  0  0  0  0  0  0  0  0  0  0  0
    2.3800    4.8533    0.0000 C   0  0  0  0  0  0  0  0  0  0  0  0
    4.8067    2.1000    0.0000 C   0  0  0  0  0  0  0  0  0  0  0  0
    6.0200    2.8000    0.0000 C   0  0  0  0  0  0  0  0  0  0  0  0
    6.0200    4.2000    0.0000 C   0  0  0  0  0  0  0  0  0  0  0  0
    4.8067    4.8533    0.0000 C   0  0  0  0  0  0  0  0  0  0  0  0
    7.1867    2.1000    0.0000 C   0  0  0  0  0  0  0  0  0  0  0  0
    8.4467    2.8000    0.0000 C   0  0  0  0  0  0  0  0  0  0  0  0
    8.4467    4.2000    0.0000 C   0  0  0  0  0  0  0  0  0  0  0  0
    7.1867    4.8533    0.0000 C   0  0  0  0  0  0  0  0  0  0  0  0
    0.0000    2.1000    0.0000 O   0  0  0  0  0  0  0  0  0  0  0  0
    2.3800    0.7000    0.0000 O   0  0  0  0  0  0  0  0  0  0  0  0
    4.8067    0.7000    0.0000 N   0  0  0  0  0  0  0  0  0  0  0  0
    3.5467    0.0000    0.0000 O   0  0  0  0  0  0  0  0  0  0  0  0
    6.0200    0.0000    0.0000 O   0  0  0  0  0  0  0  0  0  0  0  0
    9.5667    4.9000    0.0000 C   0  0  0  0  0  0  0  0  0  0  0  0
    9.5667    6.3000    0.0000 C   0  0  0  0  0  0  0  0  0  0  0  0
    8.4467    6.9067    0.0000 C   0  0  0  0  0  0  0  0  0  0  0  0
    7.1867    6.2067    0.0000 C   0  0  0  0  0  0  0  0  0  0  0  0
  1  2  1  0
  2  3  1  0
  3  4  1  0
  4  5  2  0
  5  6  1  0
  1  6  2  0
  4  7  1  0
  7  8  2  0
  8  9  1  0
  9 10  2  0
  5 10  1  0
  8 11  1  0
 11 12  2  0
 12 13  1  0
 13 14  2  0
  9 14  1  0
  2 15  1  6
  3 16  1  1
  7 17  1  0
 17 18  1  0
 17 19  2  0
 13 20  1  0
 20 21  2  0
 21 22  1  0
 22 23  2  0
 14 23  1  0
M  CHG  2  17   1  18  -1
M  END
>  <Compound Name>  (207) 
t-8,9-dihydro-7-nitrobenz[a]anthracene-8,9-diol

>  <Formula>  (207) 
C18H13NO4

>  <LogP>  (207) 
2.55

>  <LUMO>  (207) 
-1.636

>  <MOL_ID>  (207) 
219

>  <Activity>  (207) 
-99

$$$$
t-3,4-dihydro-7-nitrobenz[a]anthracene-3,4-diol
     RDKit          2D

 23 26  0  0  0  0  0  0  0  0999 V2000
   -0.0000    4.1977    0.0000 C   0  0  0  0  0  0  0  0  0  0  0  0
   -0.0000    2.7984    0.0000 C   0  0  0  0  0  0  0  0  0  0  0  0
    1.1660    2.0988    0.0000 C   0  0  0  0  0  0  0  0  0  0  0  0
    2.3787    2.7984    0.0000 C   0  0  0  0  0  0  0  0  0  0  0  0
    2.3787    4.1977    0.0000 C   0  0  0  0  0  0  0  0  0  0  0  0
    1.1660    4.8973    0.0000 C   0  0  0  0  0  0  0  0  0  0  0  0
    3.5913    2.0988    0.0000 C   0  0  0  0  0  0  0  0  0  0  0  0
    4.8040    2.7984    0.0000 C   0  0  0  0  0  0  0  0  0  0  0  0
    4.8040    4.1977    0.0000 C   0  0  0  0  0  0  0  0  0  0  0  0
    3.5913    4.8973    0.0000 C   0  0  0  0  0  0  0  0  0  0  0  0
    6.0167    2.0988    0.0000 C   0  0  0  0  0  0  0  0  0  0  0  0
    7.2293    2.7984    0.0000 C   0  0  0  0  0  0  0  0  0  0  0  0
    7.2293    4.1977    0.0000 C   0  0  0  0  0  0  0  0  0  0  0  0
    6.0167    4.8973    0.0000 C   0  0  0  0  0  0  0  0  0  0  0  0
    8.4420    4.8973    0.0000 C   0  0  0  0  0  0  0  0  0  0  0  0
    8.4420    6.2965    0.0000 C   0  0  0  0  0  0  0  0  0  0  0  0
    7.2293    6.9028    0.0000 C   0  0  0  0  0  0  0  0  0  0  0  0
    6.0167    6.2965    0.0000 C   0  0  0  0  0  0  0  0  0  0  0  0
    9.6546    6.9028    0.0000 O   0  0  0  0  0  0  0  0  0  0  0  0
    9.6546    4.1977    0.0000 O   0  0  0  0  0  0  0  0  0  0  0  0
    3.5913    0.6996    0.0000 N   0  0  0  0  0  0  0  0  0  0  0  0
    2.3787    0.0000    0.0000 O   0  0  0  0  0  0  0  0  0  0  0  0
    4.8040    0.0000    0.0000 O   0  0  0  0  0  0  0  0  0  0  0  0
  1  2  2  0
  2  3  1  0
  3  4  2  0
  4  5  1  0
  5  6  2  0
  1  6  1  0
  4  7  1  0
  7  8  2  0
  8  9  1  0
  9 10  2  0
  5 10  1  0
  8 11  1  0
 11 12  2  0
 12 13  1  0
 13 14  2  0
  9 14  1  0
 13 15  1  0
 15 16  1  0
 16 17  1  0
 17 18  2  0
 14 18  1  0
 16 19  1  6
 15 20  1  1
  7 21  1  0
 21 22  1  0
 21 23  2  0
M  CHG  2  21   1  22  -1
M  END
>  <Compound Name>  (208) 
t-3,4-dihydro-7-nitrobenz[a]anthracene-3,4-diol

>  <Formula>  (208) 
C18H13NO4

>  <LogP>  (208) 
2.55

>  <LUMO>  (208) 
-1.808

>  <MOL_ID>  (208) 
220

>  <Activity>  (208) 
-99

$$$$
1-nitrotriphenylene
     RDKit          2D

 21 24  0  0  0  0  0  0  0  0999 V2000
    2.3787    4.1977    0.0000 C   0  0  0  0  0  0  0  0  0  0  0  0
    2.3787    2.7985    0.0000 C   0  0  0  0  0  0  0  0  0  0  0  0
    3.5913    2.0988    0.0000 C   0  0  0  0  0  0  0  0  0  0  0  0
    4.8040    2.7985    0.0000 C   0  0  0  0  0  0  0  0  0  0  0  0
    4.8040    4.1977    0.0000 C   0  0  0  0  0  0  0  0  0  0  0  0
    3.5913    4.8973    0.0000 C   0  0  0  0  0  0  0  0  0  0  0  0
    1.1660    4.8973    0.0000 C   0  0  0  0  0  0  0  0  0  0  0  0
    0.0000    4.1977    0.0000 C   0  0  0  0  0  0  0  0  0  0  0  0
    0.0000    2.7985    0.0000 C   0  0  0  0  0  0  0  0  0  0  0  0
    1.1660    2.0988    0.0000 C   0  0  0  0  0  0  0  0  0  0  0  0
    6.0167    4.8973    0.0000 C   0  0  0  0  0  0  0  0  0  0  0  0
    6.0167    6.2965    0.0000 C   0  0  0  0  0  0  0  0  0  0  0  0
    4.8040    6.9961    0.0000 C   0  0  0  0  0  0  0  0  0  0  0  0
    3.5913    6.2965    0.0000 C   0  0  0  0  0  0  0  0  0  0  0  0
    3.5913    0.6996    0.0000 C   0  0  0  0  0  0  0  0  0  0  0  0
    4.8040   -0.0000    0.0000 C   0  0  0  0  0  0  0  0  0  0  0  0
    6.0167    0.6996    0.0000 C   0  0  0  0  0  0  0  0  0  0  0  0
    6.0167    2.0988    0.0000 C   0  0  0  0  0  0  0  0  0  0  0  0
    2.3787    6.9961    0.0000 N   0  0  0  0  0  0  0  0  0  0  0  0
    2.3787    8.3487    0.0000 O   0  0  0  0  0  0  0  0  0  0  0  0
    1.1660    6.2965    0.0000 O   0  0  0  0  0  0  0  0  0  0  0  0
  1  2  1  0
  2  3  1  0
  3  4  2  0
  4  5  1  0
  5  6  2  0
  1  6  1  0
  1  7  2  0
  7  8  1  0
  8  9  2  0
  9 10  1  0
  2 10  2  0
  5 11  1  0
 11 12  2  0
 12 13  1  0
 13 14  2  0
  6 14  1  0
  3 15  1  0
 15 16  2  0
 16 17  1  0
 17 18  2  0
  4 18  1  0
 14 19  1  0
 19 20  1  0
 19 21  2  0
M  CHG  2  19   1  20  -1
M  END
>  <Compound Name>  (209) 
1-nitrotriphenylene

>  <Formula>  (209) 
C18H11NO2

>  <LogP>  (209) 
5.41

>  <LUMO>  (209) 
-1.113

>  <MOL_ID>  (209) 
221

>  <Activity>  (209) 
-99

$$$$
6nitro-7hydroxy-7,8,9,10-tetrahydrobenzo[a]pyrene
     RDKit          2D

 24 28  0  0  0  0  0  0  0  0999 V2000
    2.3787    4.1977    0.0000 C   0  0  0  0  0  0  0  0  0  0  0  0
    2.3787    2.7984    0.0000 C   0  0  0  0  0  0  0  0  0  0  0  0
    3.5913    2.0988    0.0000 C   0  0  0  0  0  0  0  0  0  0  0  0
    4.8040    2.7984    0.0000 C   0  0  0  0  0  0  0  0  0  0  0  0
    4.8040    4.1977    0.0000 C   0  0  0  0  0  0  0  0  0  0  0  0
    3.5913    4.8973    0.0000 C   0  0  0  0  0  0  0  0  0  0  0  0
    6.0167    4.8973    0.0000 C   0  0  0  0  0  0  0  0  0  0  0  0
    6.0167    6.2965    0.0000 C   0  0  0  0  0  0  0  0  0  0  0  0
    4.8040    6.9495    0.0000 C   0  0  0  0  0  0  0  0  0  0  0  0
    3.5913    6.2965    0.0000 C   0  0  0  0  0  0  0  0  0  0  0  0
    7.2293    4.1977    0.0000 C   0  0  0  0  0  0  0  0  0  0  0  0
    8.4420    4.8973    0.0000 C   0  0  0  0  0  0  0  0  0  0  0  0
    8.4420    6.2965    0.0000 C   0  0  0  0  0  0  0  0  0  0  0  0
    7.2293    6.9495    0.0000 C   0  0  0  0  0  0  0  0  0  0  0  0
    6.0167    2.0988    0.0000 C   0  0  0  0  0  0  0  0  0  0  0  0
    7.2293    2.7984    0.0000 C   0  0  0  0  0  0  0  0  0  0  0  0
    1.1660    4.8973    0.0000 C   0  0  0  0  0  0  0  0  0  0  0  0
   -0.0000    4.1977    0.0000 C   0  0  0  0  0  0  0  0  0  0  0  0
   -0.0000    2.7984    0.0000 C   0  0  0  0  0  0  0  0  0  0  0  0
    1.1660    2.0988    0.0000 C   0  0  0  0  0  0  0  0  0  0  0  0
    1.1660    0.6996    0.0000 O   0  0  0  0  0  0  0  0  0  0  0  0
    3.5913    0.6996    0.0000 N   0  0  0  0  0  0  0  0  0  0  0  0
    2.3787    0.0000    0.0000 O   0  0  0  0  0  0  0  0  0  0  0  0
    4.8040    0.0000    0.0000 O   0  0  0  0  0  0  0  0  0  0  0  0
  1  2  1  0
  2  3  2  0
  3  4  1  0
  4  5  2  0
  5  6  1  0
  1  6  2  0
  5  7  1  0
  7  8  2  0
  8  9  1  0
  9 10  2  0
  6 10  1  0
  7 11  1  0
 11 12  2  0
 12 13  1  0
 13 14  2  0
  8 14  1  0
  4 15  1  0
 15 16  2  0
 11 16  1  0
  1 17  1  0
 17 18  1  0
 18 19  1  0
 19 20  1  0
  2 20  1  0
 20 21  1  0
  3 22  1  0
 22 23  1  0
 22 24  2  0
M  CHG  2  22   1  23  -1
M  END
>  <Compound Name>  (210) 
6nitro-7hydroxy-7,8,9,10-tetrahydrobenzo[a]pyrene

>  <Formula>  (210) 
C20H15NO3

>  <LogP>  (210) 
4.78

>  <LUMO>  (210) 
-1.748

>  <MOL_ID>  (210) 
222

>  <Activity>  (210) 
-99

$$$$
11-hydroxy-7-nitrobenz[a]anthracene
     RDKit          2D

 22 25  0  0  0  0  0  0  0  0999 V2000
   -0.0000    4.1977    0.0000 C   0  0  0  0  0  0  0  0  0  0  0  0
   -0.0000    2.7984    0.0000 C   0  0  0  0  0  0  0  0  0  0  0  0
    1.1660    2.0988    0.0000 C   0  0  0  0  0  0  0  0  0  0  0  0
    2.3787    2.7984    0.0000 C   0  0  0  0  0  0  0  0  0  0  0  0
    2.3787    4.1977    0.0000 C   0  0  0  0  0  0  0  0  0  0  0  0
    1.1660    4.8973    0.0000 C   0  0  0  0  0  0  0  0  0  0  0  0
    3.5913    2.0988    0.0000 C   0  0  0  0  0  0  0  0  0  0  0  0
    4.8040    2.7984    0.0000 C   0  0  0  0  0  0  0  0  0  0  0  0
    4.8040    4.1977    0.0000 C   0  0  0  0  0  0  0  0  0  0  0  0
    3.5913    4.8973    0.0000 C   0  0  0  0  0  0  0  0  0  0  0  0
    6.0167    2.0988    0.0000 C   0  0  0  0  0  0  0  0  0  0  0  0
    7.2293    2.7984    0.0000 C   0  0  0  0  0  0  0  0  0  0  0  0
    7.2293    4.1977    0.0000 C   0  0  0  0  0  0  0  0  0  0  0  0
    6.0167    4.8973    0.0000 C   0  0  0  0  0  0  0  0  0  0  0  0
    8.4420    4.8973    0.0000 C   0  0  0  0  0  0  0  0  0  0  0  0
    8.4420    6.2965    0.0000 C   0  0  0  0  0  0  0  0  0  0  0  0
    7.2293    6.9495    0.0000 C   0  0  0  0  0  0  0  0  0  0  0  0
    6.0167    6.2965    0.0000 C   0  0  0  0  0  0  0  0  0  0  0  0
    3.5913    0.6996    0.0000 N   0  0  0  0  0  0  0  0  0  0  0  0
    2.3787    0.0000    0.0000 O   0  0  0  0  0  0  0  0  0  0  0  0
    4.8040    0.0000    0.0000 O   0  0  0  0  0  0  0  0  0  0  0  0
    1.1660    6.2965    0.0000 O   0  0  0  0  0  0  0  0  0  0  0  0
  1  2  2  0
  2  3  1  0
  3  4  2  0
  4  5  1  0
  5  6  2  0
  1  6  1  0
  4  7  1  0
  7  8  2  0
  8  9  1  0
  9 10  2  0
  5 10  1  0
  8 11  1  0
 11 12  2  0
 12 13  1  0
 13 14  2  0
  9 14  1  0
 13 15  1  0
 15 16  2  0
 16 17  1  0
 17 18  2  0
 14 18  1  0
  7 19  1  0
 19 20  1  0
 19 21  2  0
  6 22  1  0
M  CHG  2  19   1  20  -1
M  END
>  <Compound Name>  (211) 
11-hydroxy-7-nitrobenz[a]anthracene

>  <Formula>  (211) 
C18H11NO3

>  <LogP>  (211) 
5.06

>  <LUMO>  (211) 
-1.82

>  <MOL_ID>  (211) 
223

>  <Activity>  (211) 
-99

$$$$
3-nitroperylene
     RDKit          2D

 23 27  0  0  0  0  0  0  0  0999 V2000
    2.0533    2.4266    0.0000 C   0  0  0  0  0  0  0  0  0  0  0  0
    0.6533    2.4266    0.0000 C   0  0  0  0  0  0  0  0  0  0  0  0
    0.0000    1.2133    0.0000 C   0  0  0  0  0  0  0  0  0  0  0  0
    0.6533   -0.0000    0.0000 C   0  0  0  0  0  0  0  0  0  0  0  0
    2.0533   -0.0000    0.0000 C   0  0  0  0  0  0  0  0  0  0  0  0
    2.7533    1.2133    0.0000 C   0  0  0  0  0  0  0  0  0  0  0  0
    2.7533    3.6400    0.0000 C   0  0  0  0  0  0  0  0  0  0  0  0
    2.0533    4.8066    0.0000 C   0  0  0  0  0  0  0  0  0  0  0  0
    0.6533    4.8066    0.0000 C   0  0  0  0  0  0  0  0  0  0  0  0
    0.0000    3.6400    0.0000 C   0  0  0  0  0  0  0  0  0  0  0  0
    4.1533    1.2133    0.0000 C   0  0  0  0  0  0  0  0  0  0  0  0
    4.8533    2.4266    0.0000 C   0  0  0  0  0  0  0  0  0  0  0  0
    4.1533    3.6400    0.0000 C   0  0  0  0  0  0  0  0  0  0  0  0
    6.2533    2.4266    0.0000 C   0  0  0  0  0  0  0  0  0  0  0  0
    6.9533    3.6400    0.0000 C   0  0  0  0  0  0  0  0  0  0  0  0
    6.2533    4.8066    0.0000 C   0  0  0  0  0  0  0  0  0  0  0  0
    4.8533    4.8066    0.0000 C   0  0  0  0  0  0  0  0  0  0  0  0
    4.8533   -0.0000    0.0000 C   0  0  0  0  0  0  0  0  0  0  0  0
    6.2533   -0.0000    0.0000 C   0  0  0  0  0  0  0  0  0  0  0  0
    6.9533    1.2133    0.0000 C   0  0  0  0  0  0  0  0  0  0  0  0
    8.3533    1.2133    0.0000 N   0  0  0  0  0  0  0  0  0  0  0  0
    9.0533   -0.0000    0.0000 O   0  0  0  0  0  0  0  0  0  0  0  0
    9.0533    2.4266    0.0000 O   0  0  0  0  0  0  0  0  0  0  0  0
  1  2  1  0
  2  3  2  0
  3  4  1  0
  4  5  2  0
  5  6  1  0
  1  6  2  0
  1  7  1  0
  7  8  2  0
  8  9  1  0
  9 10  2  0
  2 10  1  0
  6 11  1  0
 11 12  2  0
 12 13  1  0
  7 13  1  0
 12 14  1  0
 14 15  1  0
 15 16  2  0
 16 17  1  0
 13 17  2  0
 11 18  1  0
 18 19  2  0
 19 20  1  0
 14 20  2  0
 20 21  1  0
 21 22  1  0
 21 23  2  0
M  CHG  2  21   1  22  -1
M  END
>  <Compound Name>  (212) 
3-nitroperylene

>  <Formula>  (212) 
C20H11NO2

>  <LogP>  (212) 
5.87

>  <LUMO>  (212) 
-1.845

>  <MOL_ID>  (212) 
224

>  <Activity>  (212) 
0

$$$$
5-nitro-2-furaldehyde
     RDKit          2D

 10 10  0  0  0  0  0  0  0  0999 V2000
    4.1766    3.0503    0.0000 C   0  0  0  0  0  0  0  0  0  0  0  0
    2.7688    3.0503    0.0000 C   0  0  0  0  0  0  0  0  0  0  0  0
    2.3464    1.6894    0.0000 C   0  0  0  0  0  0  0  0  0  0  0  0
    3.4727    0.8916    0.0000 O   0  0  0  0  0  0  0  0  0  0  0  0
    4.5990    1.6894    0.0000 C   0  0  0  0  0  0  0  0  0  0  0  0
    0.9855    1.3609    0.0000 N   0  0  0  0  0  0  0  0  0  0  0  0
   -0.0000    2.3464    0.0000 O   0  0  0  0  0  0  0  0  0  0  0  0
    0.6101    0.0000    0.0000 O   0  0  0  0  0  0  0  0  0  0  0  0
    5.9599    1.3609    0.0000 C   0  0  0  0  0  0  0  0  0  0  0  0
    6.9454    2.3464    0.0000 O   0  0  0  0  0  0  0  0  0  0  0  0
  1  2  1  0
  2  3  2  0
  3  4  1  0
  4  5  1  0
  1  5  2  0
  3  6  1  0
  6  7  1  0
  6  8  2  0
  5  9  1  0
  9 10  2  0
M  CHG  2   6   1   7  -1
M  END
>  <Compound Name>  (213) 
5-nitro-2-furaldehyde

>  <Formula>  (213) 
C5H3NO4

>  <LogP>  (213) 
1.01

>  <LUMO>  (213) 
-1.785

>  <MOL_ID>  (213) 
225

>  <Activity>  (213) 
0.64

$$$$
5-nitro-2-furanacrolein
     RDKit          2D

 12 12  0  0  0  0  0  0  0  0999 V2000
    4.1067    2.9867    0.0000 C   0  0  0  0  0  0  0  0  0  0  0  0
    2.7067    2.9867    0.0000 C   0  0  0  0  0  0  0  0  0  0  0  0
    2.2867    1.6800    0.0000 C   0  0  0  0  0  0  0  0  0  0  0  0
    3.4067    0.8867    0.0000 O   0  0  0  0  0  0  0  0  0  0  0  0
    4.5267    1.6800    0.0000 C   0  0  0  0  0  0  0  0  0  0  0  0
    0.9800    1.3067    0.0000 N   0  0  0  0  0  0  0  0  0  0  0  0
    0.0000    2.3333    0.0000 O   0  0  0  0  0  0  0  0  0  0  0  0
    0.6067    0.0000    0.0000 O   0  0  0  0  0  0  0  0  0  0  0  0
    5.9267    1.3067    0.0000 C   0  0  0  0  0  0  0  0  0  0  0  0
    6.9067    2.3333    0.0000 C   0  0  0  0  0  0  0  0  0  0  0  0
    8.2600    1.9600    0.0000 C   0  0  0  0  0  0  0  0  0  0  0  0
    9.2867    2.9400    0.0000 O   0  0  0  0  0  0  0  0  0  0  0  0
  1  2  1  0
  2  3  2  0
  3  4  1  0
  4  5  1  0
  1  5  2  0
  3  6  1  0
  6  7  1  0
  6  8  2  0
  5  9  1  0
  9 10  2  0
 10 11  1  0
 11 12  2  0
M  CHG  2   6   1   7  -1
M  END
>  <Compound Name>  (214) 
5-nitro-2-furanacrolein

>  <Formula>  (214) 
C7H5NO4

>  <LogP>  (214) 
0.96

>  <LUMO>  (214) 
-1.851

>  <MOL_ID>  (214) 
226

>  <Activity>  (214) 
1.97

$$$$
nitrofurazone
     RDKit          2D

 14 14  0  0  0  0  0  0  0  0999 V2000
    4.1067    2.9867    0.0000 C   0  0  0  0  0  0  0  0  0  0  0  0
    2.7067    2.9867    0.0000 C   0  0  0  0  0  0  0  0  0  0  0  0
    2.2867    1.6800    0.0000 C   0  0  0  0  0  0  0  0  0  0  0  0
    3.4067    0.8867    0.0000 O   0  0  0  0  0  0  0  0  0  0  0  0
    4.5267    1.6800    0.0000 C   0  0  0  0  0  0  0  0  0  0  0  0
    5.9267    1.3067    0.0000 C   0  0  0  0  0  0  0  0  0  0  0  0
    6.9067    2.3333    0.0000 N   0  0  0  0  0  0  0  0  0  0  0  0
    8.2600    1.9600    0.0000 N   0  0  0  0  0  2  0  0  0  0  0  0
    9.6600    1.9600    0.0000 C   0  0  0  0  0  0  0  0  0  0  0  0
   11.0600    1.9600    0.0000 N   0  0  0  0  0  0  0  0  0  0  0  0
    9.6600    0.5600    0.0000 O   0  0  0  0  0  0  0  0  0  0  0  0
    0.9800    1.3067    0.0000 N   0  0  0  0  0  0  0  0  0  0  0  0
   -0.0000    2.3333    0.0000 O   0  0  0  0  0  0  0  0  0  0  0  0
    0.6067    0.0000    0.0000 O   0  0  0  0  0  0  0  0  0  0  0  0
  1  2  1  0
  2  3  2  0
  3  4  1  0
  4  5  1  0
  1  5  2  0
  5  6  1  0
  6  7  2  0
  7  8  1  0
  8  9  1  0
  9 10  1  0
  9 11  2  0
  3 12  1  0
 12 13  1  0
 12 14  2  0
M  CHG  2  12   1  13  -1
M  RAD  1   8   2
M  END
>  <Compound Name>  (215) 
nitrofurazone

>  <Formula>  (215) 
C6H6N4O4

>  <LogP>  (215) 
0.23

>  <LUMO>  (215) 
-1.412

>  <MOL_ID>  (215) 
227

>  <Activity>  (215) 
1.02

$$$$
nitrofurantoin
     RDKit          2D

 17 18  0  0  0  0  0  0  0  0999 V2000
    4.2467    3.5000    0.0000 C   0  0  0  0  0  0  0  0  0  0  0  0
    2.8467    3.5000    0.0000 C   0  0  0  0  0  0  0  0  0  0  0  0
    2.4267    2.1933    0.0000 C   0  0  0  0  0  0  0  0  0  0  0  0
    3.5467    1.3533    0.0000 O   0  0  0  0  0  0  0  0  0  0  0  0
    4.6667    2.1933    0.0000 C   0  0  0  0  0  0  0  0  0  0  0  0
    6.0200    1.8200    0.0000 C   0  0  0  0  0  0  0  0  0  0  0  0
    6.9533    2.8000    0.0000 N   0  0  0  0  0  0  0  0  0  0  0  0
    8.2133    2.6133    0.0000 N   0  0  0  0  0  0  0  0  0  0  0  0
    8.6333    1.2600    0.0000 C   0  0  0  0  0  0  0  0  0  0  0  0
   10.0333    1.2600    0.0000 C   0  0  0  0  0  0  0  0  0  0  0  0
   10.5467    2.5200    0.0000 N   0  0  0  0  0  2  0  0  0  0  0  0
    9.4267    3.3600    0.0000 C   0  0  0  0  0  0  0  0  0  0  0  0
    9.4267    4.7600    0.0000 O   0  0  0  0  0  0  0  0  0  0  0  0
   11.0133    0.2800    0.0000 O   0  0  0  0  0  0  0  0  0  0  0  0
    1.1667    1.4933    0.0000 N   0  0  0  0  0  0  0  0  0  0  0  0
   -0.0000    2.1933    0.0000 O   0  0  0  0  0  0  0  0  0  0  0  0
    1.1667    0.0000    0.0000 O   0  0  0  0  0  0  0  0  0  0  0  0
  1  2  1  0
  2  3  2  0
  3  4  1  0
  4  5  1  0
  1  5  2  0
  5  6  1  0
  6  7  2  0
  8  9  1  0
  9 10  1  0
 10 11  1  0
 11 12  1  0
  8 12  1  0
 12 13  2  0
 10 14  2  0
  3 15  1  0
 15 16  1  0
 15 17  2  0
  7  8  1  0
M  CHG  2  15   1  16  -1
M  RAD  1  11   2
M  END
>  <Compound Name>  (216) 
nitrofurantoin

>  <Formula>  (216) 
C8H6N4O5

>  <LogP>  (216) 
-0.47

>  <LUMO>  (216) 
-1.645

>  <MOL_ID>  (216) 
228

>  <Activity>  (216) 
1.03

$$$$
niridazole
     RDKit          2D

 14 15  0  0  0  0  0  0  0  0999 V2000
    4.1766    3.5196    0.0000 N   0  0  0  0  0  0  0  0  0  0  0  0
    2.7688    3.5196    0.0000 C   0  0  0  0  0  0  0  0  0  0  0  0
    2.3464    2.1587    0.0000 C   0  0  0  0  0  0  0  0  0  0  0  0
    3.4727    1.3609    0.0000 S   0  0  0  0  0  0  0  0  0  0  0  0
    4.5990    2.1587    0.0000 C   0  0  0  0  0  0  0  0  0  0  0  0
    6.0068    2.1587    0.0000 N   0  0  0  0  0  0  0  0  0  0  0  0
    7.1331    1.4078    0.0000 C   0  0  0  0  0  0  0  0  0  0  0  0
    8.2124    2.2526    0.0000 N   0  0  0  0  0  2  0  0  0  0  0  0
    7.7431    3.5196    0.0000 C   0  0  0  0  0  0  0  0  0  0  0  0
    6.3822    3.5196    0.0000 C   0  0  0  0  0  0  0  0  0  0  0  0
    7.1331    0.0000    0.0000 O   0  0  0  0  0  0  0  0  0  0  0  0
    0.9855    1.8302    0.0000 N   0  0  0  0  0  0  0  0  0  0  0  0
    0.0000    2.8157    0.0000 O   0  0  0  0  0  0  0  0  0  0  0  0
    0.6101    0.4693    0.0000 O   0  0  0  0  0  0  0  0  0  0  0  0
  1  2  1  0
  2  3  2  0
  3  4  1  0
  4  5  1  0
  1  5  2  0
  5  6  1  0
  6  7  1  0
  7  8  1  0
  8  9  1  0
  9 10  1  0
  6 10  1  0
  7 11  2  0
  3 12  1  0
 12 13  1  0
 12 14  2  0
M  CHG  2  12   1  13  -1
M  RAD  1   8   2
M  END
>  <Compound Name>  (217) 
niridazole

>  <Formula>  (217) 
C6H7N4O3S

>  <LogP>  (217) 
0.95

>  <LUMO>  (217) 
-1.526

>  <MOL_ID>  (217) 
229

>  <Activity>  (217) 
2.59

$$$$
furazolidone
     RDKit          2D

 16 17  0  0  0  0  0  0  0  0999 V2000
    4.1044    3.4048    0.0000 C   0  0  0  0  0  0  0  0  0  0  0  0
    2.7052    3.4048    0.0000 C   0  0  0  0  0  0  0  0  0  0  0  0
    2.2854    2.0522    0.0000 C   0  0  0  0  0  0  0  0  0  0  0  0
    3.4048    1.2593    0.0000 O   0  0  0  0  0  0  0  0  0  0  0  0
    4.5241    2.0522    0.0000 C   0  0  0  0  0  0  0  0  0  0  0  0
    0.9328    1.7257    0.0000 N   0  0  0  0  0  0  0  0  0  0  0  0
    0.0000    2.7052    0.0000 O   0  0  0  0  0  0  0  0  0  0  0  0
    0.5597    0.3731    0.0000 O   0  0  0  0  0  0  0  0  0  0  0  0
    5.7368    1.3526    0.0000 C   0  0  0  0  0  0  0  0  0  0  0  0
    6.9494    2.0522    0.0000 N   0  0  0  0  0  0  0  0  0  0  0  0
    8.1621    1.3526    0.0000 N   0  0  0  0  0  0  0  0  0  0  0  0
    8.5819    0.0000    0.0000 C   0  0  0  0  0  0  0  0  0  0  0  0
   10.0277    0.0000    0.0000 C   0  0  0  0  0  0  0  0  0  0  0  0
   10.4941    1.3526    0.0000 O   0  0  0  0  0  0  0  0  0  0  0  0
    9.3281    2.2387    0.0000 C   0  0  0  0  0  0  0  0  0  0  0  0
    9.3281    3.6380    0.0000 O   0  0  0  0  0  0  0  0  0  0  0  0
  1  2  1  0
  2  3  2  0
  3  4  1  0
  4  5  1  0
  1  5  2  0
  3  6  1  0
  6  7  1  0
  6  8  2  0
  5  9  1  0
  9 10  2  0
 10 11  1  0
 11 12  1  0
 12 13  1  0
 13 14  1  0
 14 15  1  0
 11 15  1  0
 15 16  2  0
M  CHG  2   6   1   7  -1
M  END
>  <Compound Name>  (218) 
furazolidone

>  <Formula>  (218) 
C8H7N3O5

>  <LogP>  (218) 
-0.04

>  <LUMO>  (218) 
-1.503

>  <MOL_ID>  (218) 
230

>  <Activity>  (218) 
2.24

$$$$
